

        *** GPGPU-Sim Simulator Version 4.0.0  [build gpgpu-sim_git-commit-_modified_] ***


GPGPU-Sim PTX: simulation mode 0 (can change with PTX_SIM_MODE_FUNC environment variable:
               1=functional simulation only, 0=detailed performance simulator)
GPGPU-Sim PTX: overriding embedded ptx with ptx file (PTX_SIM_USE_PTX_FILE is set)
GPGPU-Sim: Configuration options:

-save_embedded_ptx                      0 # saves ptx files embedded in binary as <n>.ptx
-keep                                   0 # keep intermediate files created by GPGPU-Sim when interfacing with external programs
-gpgpu_ptx_save_converted_ptxplus                    0 # Saved converted ptxplus to a file
-gpgpu_occupancy_sm_number                   70 # The SM number to pass to ptxas when getting register usage for computing GPU occupancy. This parameter is required in the config.
-ptx_opcode_latency_int         4,13,4,5,145 # Opcode latencies for integers <ADD,MAX,MUL,MAD,DIV>Default 1,1,19,25,145
-ptx_opcode_latency_fp          4,13,4,5,39 # Opcode latencies for single precision floating points <ADD,MAX,MUL,MAD,DIV>Default 1,1,1,1,30
-ptx_opcode_latency_dp         8,19,8,8,330 # Opcode latencies for double precision floating points <ADD,MAX,MUL,MAD,DIV>Default 8,8,8,8,335
-ptx_opcode_latency_sfu                  100 # Opcode latencies for SFU instructionsDefault 8
-ptx_opcode_latency_tesnor                   64 # Opcode latencies for Tensor instructionsDefault 64
-ptx_opcode_initiation_int            2,2,2,2,8 # Opcode initiation intervals for integers <ADD,MAX,MUL,MAD,DIV>Default 1,1,4,4,32
-ptx_opcode_initiation_fp            2,2,2,2,4 # Opcode initiation intervals for single precision floating points <ADD,MAX,MUL,MAD,DIV>Default 1,1,1,1,5
-ptx_opcode_initiation_dp          4,4,4,4,130 # Opcode initiation intervals for double precision floating points <ADD,MAX,MUL,MAD,DIV>Default 8,8,8,8,130
-ptx_opcode_initiation_sfu                    8 # Opcode initiation intervals for sfu instructionsDefault 8
-ptx_opcode_initiation_tensor                   64 # Opcode initiation intervals for tensor instructionsDefault 64
-cdp_latency         7200,8000,100,12000,1600 # CDP API latency <cudaStreamCreateWithFlags, cudaGetParameterBufferV2_init_perWarp, cudaGetParameterBufferV2_perKernel, cudaLaunchDeviceV2_init_perWarp, cudaLaunchDevicV2_perKernel>Default 7200,8000,100,12000,1600
-network_mode                           1 # Interconnection network mode
-inter_config_file   config_volta_islip.icnt # Interconnection network config file
-inct_in_buffer_limit                   64 # in_buffer_limit
-inct_out_buffer_limit                   64 # out_buffer_limit
-inct_subnets                           2 # subnets
-gpgpu_ptx_use_cuobjdump                    1 # Use cuobjdump to extract ptx and sass from binaries
-gpgpu_experimental_lib_support                    0 # Try to extract code from cuda libraries [Broken because of unknown cudaGetExportTable]
-checkpoint_option                      0 #  checkpointing flag (0 = no checkpoint)
-checkpoint_kernel                      1 #  checkpointing during execution of which kernel (1- 1st kernel)
-checkpoint_CTA                         0 #  checkpointing after # of CTA (< less than total CTA)
-resume_option                          0 #  resume flag (0 = no resume)
-resume_kernel                          0 #  Resume from which kernel (1= 1st kernel)
-resume_CTA                             0 #  resume from which CTA 
-checkpoint_CTA_t                       0 #  resume from which CTA 
-checkpoint_insn_Y                      0 #  resume from which CTA 
-gpgpu_ptx_convert_to_ptxplus                    0 # Convert SASS (native ISA) to ptxplus and run ptxplus
-gpgpu_ptx_force_max_capability                   70 # Force maximum compute capability
-gpgpu_ptx_inst_debug_to_file                    0 # Dump executed instructions' debug information to file
-gpgpu_ptx_inst_debug_file       inst_debug.txt # Executed instructions' debug output file
-gpgpu_ptx_inst_debug_thread_uid                    1 # Thread UID for executed instructions' debug output
-gpgpu_simd_model                       1 # 1 = post-dominator
-gpgpu_shader_core_pipeline              2048:32 # shader core pipeline config, i.e., {<nthread>:<warpsize>}
-gpgpu_tex_cache:l1  N:16:128:24,L:R:m:N:L,T:128:4,128:2 # per-shader L1 texture cache  (READ-ONLY) config  {<nsets>:<bsize>:<assoc>,<rep>:<wr>:<alloc>:<wr_alloc>,<mshr>:<N>:<merge>,<mq>:<rf>}
-gpgpu_const_cache:l1 N:128:64:8,L:R:f:N:L,S:2:64,4 # per-shader L1 constant memory cache  (READ-ONLY) config  {<nsets>:<bsize>:<assoc>,<rep>:<wr>:<alloc>:<wr_alloc>,<mshr>:<N>:<merge>,<mq>} 
-gpgpu_cache:il1     N:64:128:16,L:R:f:N:L,S:2:48,4 # shader L1 instruction cache config  {<nsets>:<bsize>:<assoc>,<rep>:<wr>:<alloc>:<wr_alloc>,<mshr>:<N>:<merge>,<mq>} 
-gpgpu_cache:dl1     S:4:128:64,L:L:s:N:L,A:256:8,16:0,32 # per-shader L1 data cache config  {<nsets>:<bsize>:<assoc>,<rep>:<wr>:<alloc>:<wr_alloc>,<mshr>:<N>:<merge>,<mq> | none}
-l1_latency                            28 # L1 Hit Latency
-smem_latency                          19 # smem Latency
-gpgpu_cache:dl1PrefL1                 none # per-shader L1 data cache config  {<nsets>:<bsize>:<assoc>,<rep>:<wr>:<alloc>:<wr_alloc>,<mshr>:<N>:<merge>,<mq> | none}
-gpgpu_cache:dl1PrefShared                 none # per-shader L1 data cache config  {<nsets>:<bsize>:<assoc>,<rep>:<wr>:<alloc>:<wr_alloc>,<mshr>:<N>:<merge>,<mq> | none}
-gmem_skip_L1D                          0 # global memory access skip L1D cache (implements -Xptxas -dlcm=cg, default=no skip)
-gpgpu_perfect_mem                      0 # enable perfect memory mode (no cache miss)
-n_regfile_gating_group                    4 # group of lanes that should be read/written together)
-gpgpu_clock_gated_reg_file                    0 # enable clock gated reg file for power calculations
-gpgpu_clock_gated_lanes                    0 # enable clock gated lanes for power calculations
-gpgpu_shader_registers                65536 # Number of registers per shader core. Limits number of concurrent CTAs. (default 8192)
-gpgpu_registers_per_block                 8192 # Maximum number of registers per CTA. (default 8192)
-gpgpu_ignore_resources_limitation                    0 # gpgpu_ignore_resources_limitation (default 0)
-gpgpu_shader_cta                      32 # Maximum number of concurrent CTAs in shader (default 8)
-gpgpu_num_cta_barriers                   16 # Maximum number of named barriers per CTA (default 16)
-gpgpu_n_clusters                      16 # number of processing clusters
-gpgpu_n_cores_per_cluster                    2 # number of simd cores per cluster
-gpgpu_n_cluster_ejection_buffer_size                   32 # number of packets in ejection buffer
-gpgpu_n_ldst_response_buffer_size                    2 # number of response packets in ld/st unit ejection buffer
-gpgpu_shmem_per_block                49152 # Size of shared memory per thread block or CTA (default 48kB)
-gpgpu_shmem_size                   16384 # Size of shared memory per shader core (default 16kB)
-adaptive_volta_cache_config                    1 # adaptive_volta_cache_config
-gpgpu_shmem_size                   98304 # Size of shared memory per shader core (default 16kB)
-gpgpu_shmem_size_PrefL1                16384 # Size of shared memory per shader core (default 16kB)
-gpgpu_shmem_size_PrefShared                16384 # Size of shared memory per shader core (default 16kB)
-gpgpu_shmem_num_banks                   32 # Number of banks in the shared memory in each shader core (default 16)
-gpgpu_shmem_limited_broadcast                    0 # Limit shared memory to do one broadcast per cycle (default on)
-gpgpu_shmem_warp_parts                    1 # Number of portions a warp is divided into for shared memory bank conflict check 
-mem_unit_ports                         4 # The number of memory transactions allowed per core cycle
-gpgpu_shmem_warp_parts                    1 # Number of portions a warp is divided into for shared memory bank conflict check 
-gpgpu_warpdistro_shader                   -1 # Specify which shader core to collect the warp size distribution from
-gpgpu_warp_issue_shader                    0 # Specify which shader core to collect the warp issue distribution from
-gpgpu_local_mem_map                    1 # Mapping from local memory space address to simulated GPU physical address space (default = enabled)
-gpgpu_num_reg_banks                    8 # Number of register banks (default = 8)
-gpgpu_reg_bank_use_warp_id                    0 # Use warp ID in mapping registers to banks (default = off)
-sub_core_model                         1 # Sub Core Volta/Pascal model (default = off)
-enable_specialized_operand_collector                    0 # enable_specialized_operand_collector
-gpgpu_operand_collector_num_units_sp                    4 # number of collector units (default = 4)
-gpgpu_operand_collector_num_units_dp                    0 # number of collector units (default = 0)
-gpgpu_operand_collector_num_units_sfu                    4 # number of collector units (default = 4)
-gpgpu_operand_collector_num_units_int                    0 # number of collector units (default = 0)
-gpgpu_operand_collector_num_units_tensor_core                    4 # number of collector units (default = 4)
-gpgpu_operand_collector_num_units_mem                    2 # number of collector units (default = 2)
-gpgpu_operand_collector_num_units_gen                    8 # number of collector units (default = 0)
-gpgpu_operand_collector_num_in_ports_sp                    1 # number of collector unit in ports (default = 1)
-gpgpu_operand_collector_num_in_ports_dp                    0 # number of collector unit in ports (default = 0)
-gpgpu_operand_collector_num_in_ports_sfu                    1 # number of collector unit in ports (default = 1)
-gpgpu_operand_collector_num_in_ports_int                    0 # number of collector unit in ports (default = 0)
-gpgpu_operand_collector_num_in_ports_tensor_core                    1 # number of collector unit in ports (default = 1)
-gpgpu_operand_collector_num_in_ports_mem                    1 # number of collector unit in ports (default = 1)
-gpgpu_operand_collector_num_in_ports_gen                    8 # number of collector unit in ports (default = 0)
-gpgpu_operand_collector_num_out_ports_sp                    1 # number of collector unit in ports (default = 1)
-gpgpu_operand_collector_num_out_ports_dp                    0 # number of collector unit in ports (default = 0)
-gpgpu_operand_collector_num_out_ports_sfu                    1 # number of collector unit in ports (default = 1)
-gpgpu_operand_collector_num_out_ports_int                    0 # number of collector unit in ports (default = 0)
-gpgpu_operand_collector_num_out_ports_tensor_core                    1 # number of collector unit in ports (default = 1)
-gpgpu_operand_collector_num_out_ports_mem                    1 # number of collector unit in ports (default = 1)
-gpgpu_operand_collector_num_out_ports_gen                    8 # number of collector unit in ports (default = 0)
-gpgpu_coalesce_arch                   60 # Coalescing arch (GT200 = 13, Fermi = 20)
-gpgpu_num_sched_per_core                    4 # Number of warp schedulers per core
-gpgpu_max_insn_issue_per_warp                    1 # Max number of instructions that can be issued per warp in one cycle by scheduler (either 1 or 2)
-gpgpu_dual_issue_diff_exec_units                    1 # should dual issue use two different execution unit resources (Default = 1)
-gpgpu_simt_core_sim_order                    1 # Select the simulation order of cores in a cluster (0=Fix, 1=Round-Robin)
-gpgpu_pipeline_widths 4,4,4,4,4,4,4,4,4,4,8,4,4 # Pipeline widths ID_OC_SP,ID_OC_DP,ID_OC_INT,ID_OC_SFU,ID_OC_MEM,OC_EX_SP,OC_EX_DP,OC_EX_INT,OC_EX_SFU,OC_EX_MEM,EX_WB,ID_OC_TENSOR_CORE,OC_EX_TENSOR_CORE
-gpgpu_tensor_core_avail                    1 # Tensor Core Available (default=0)
-gpgpu_num_sp_units                     4 # Number of SP units (default=1)
-gpgpu_num_dp_units                     4 # Number of DP units (default=0)
-gpgpu_num_int_units                    4 # Number of INT units (default=0)
-gpgpu_num_sfu_units                    4 # Number of SF units (default=1)
-gpgpu_num_tensor_core_units                    4 # Number of tensor_core units (default=1)
-gpgpu_num_mem_units                    1 # Number if ldst units (default=1) WARNING: not hooked up to anything
-gpgpu_scheduler                      gto # Scheduler configuration: < lrr | gto | two_level_active > If two_level_active:<num_active_warps>:<inner_prioritization>:<outer_prioritization>For complete list of prioritization values see shader.h enum scheduler_prioritization_typeDefault: gto
-gpgpu_concurrent_kernel_sm                    0 # Support concurrent kernels on a SM (default = disabled)
-perf_sim_memcpy                        1 # Fill the L2 cache on memcpy
-gpgpu_dram_scheduler                    1 # 0 = fifo, 1 = FR-FCFS (defaul)
-gpgpu_dram_partition_queues          64:64:64:64 # i2$:$2d:d2$:$2i
-l2_ideal                               0 # Use a ideal L2 cache that always hit
-gpgpu_cache:dl2     S:32:128:24,L:B:m:L:L,A:192:4,32:0,32 # unified banked L2 data cache config  {<nsets>:<bsize>:<assoc>,<rep>:<wr>:<alloc>:<wr_alloc>,<mshr>:<N>:<merge>,<mq>}
-gpgpu_cache:dl2_texture_only                    0 # L2 cache used for texture only
-gpgpu_n_mem                          128 # number of memory modules (e.g. memory controllers) in gpu
-gpgpu_n_sub_partition_per_mchannel                    2 # number of memory subpartition in each memory module
-gpgpu_n_mem_per_ctrlr                    1 # number of memory chips per memory controller
-gpgpu_memlatency_stat                   14 # track and display latency statistics 0x2 enables MC, 0x4 enables queue logs
-gpgpu_frfcfs_dram_sched_queue_size                   64 # 0 = unlimited (default); # entries per chip
-gpgpu_dram_return_queue_size                  192 # 0 = unlimited (default); # entries per chip
-gpgpu_dram_buswidth                   16 # default = 4 bytes (8 bytes per cycle at DDR)
-gpgpu_dram_burst_length                    2 # Burst length of each DRAM request (default = 4 data bus cycle)
-dram_data_command_freq_ratio                    2 # Frequency ratio between DRAM data bus and command bus (default = 2 times, i.e. DDR)
-gpgpu_dram_timing_opt nbk=16:CCD=1:RRD=3:RCD=12:RAS=28:RP=12:RC=40: CL=12:WL=2:CDLR=3:WR=10:nbkgrp=4:CCDL=2:RTPL=3 # DRAM timing parameters = {nbk:tCCD:tRRD:tRCD:tRAS:tRP:tRC:CL:WL:tCDLR:tWR:nbkgrp:tCCDL:tRTPL}
-rop_latency                          120 # ROP queue latency (default 85)
-dram_latency                         100 # DRAM latency (default 30)
-dual_bus_interface                     1 # dual_bus_interface (default = 0) 
-dram_bnk_indexing_policy                    0 # dram_bnk_indexing_policy (0 = normal indexing, 1 = Xoring with the higher bits) (Default = 0)
-dram_bnkgrp_indexing_policy                    1 # dram_bnkgrp_indexing_policy (0 = take higher bits, 1 = take lower bits) (Default = 0)
-Seperate_Write_Queue_Enable                    0 # Seperate_Write_Queue_Enable
-Write_Queue_Size                32:28:16 # Write_Queue_Size
-Elimnate_rw_turnaround                    0 # elimnate_rw_turnaround i.e set tWTR and tRTW = 0
-icnt_flit_size                        40 # icnt_flit_size
-gpgpu_mem_addr_mapping dramid@8;00000000.00000000.00000000.00000000.0000RRRR.RRRRRRRR.RBBBCCCB.CCCSSSSS # mapping memory address to dram model {dramid@<start bit>;<memory address map>}
-gpgpu_mem_addr_test                    0 # run sweep test to check address mapping for aliased address
-gpgpu_mem_address_mask                    1 # 0 = old addressing mask, 1 = new addressing mask, 2 = new add. mask + flipped bank sel and chip sel bits
-memory_partition_indexing                    0 # 0 = no indexing, 1 = bitwise xoring, 2 = IPoly, 3 = custom indexing
-gpuwattch_xml_file  gpuwattch_gtx1080Ti_to_volta.xml # GPUWattch XML file
-power_simulation_enabled                    1 # Turn on power simulator (1=On, 0=Off)
-power_per_cycle_dump                    0 # Dump detailed power output each cycle
-power_trace_enabled                    0 # produce a file for the power trace (1=On, 0=Off)
-power_trace_zlevel                     6 # Compression level of the power trace output log (0=no comp, 9=highest)
-steady_power_levels_enabled                    0 # produce a file for the steady power levels (1=On, 0=Off)
-steady_state_definition                  8:4 # allowed deviation:number of samples
-gpgpu_max_cycle                        0 # terminates gpu simulation early (0 = no limit)
-gpgpu_max_insn                         0 # terminates gpu simulation early (0 = no limit)
-gpgpu_max_cta                          0 # terminates gpu simulation early (0 = no limit)
-gpgpu_runtime_stat                   500 # display runtime statistics such as dram utilization {<freq>:<flag>}
-liveness_message_freq                    1 # Minimum number of seconds between simulation liveness messages (0 = always print)
-gpgpu_compute_capability_major                    7 # Major compute capability version number
-gpgpu_compute_capability_minor                    0 # Minor compute capability version number
-gpgpu_flush_l1_cache                    1 # Flush L1 cache at the end of each kernel call
-gpgpu_flush_l2_cache                    0 # Flush L2 cache at the end of each kernel call
-gpgpu_deadlock_detect                    1 # Stop the simulation at deadlock (1=on (default), 0=off)
-gpgpu_ptx_instruction_classification                    0 # if enabled will classify ptx instruction types per kernel (Max 255 kernels now)
-gpgpu_ptx_sim_mode                     0 # Select between Performance (default) or Functional simulation (1)
-gpgpu_clock_domains 1455.0:1455.0:1455.0:850.0 # Clock Domain Frequencies in MhZ {<Core Clock>:<ICNT Clock>:<L2 Clock>:<DRAM Clock>}
-gpgpu_max_concurrent_kernel                    8 # maximum kernels that can run concurrently on GPU
-gpgpu_cflog_interval                    0 # Interval between each snapshot in control flow logger
-visualizer_enabled                     0 # Turn on visualizer output (1=On, 0=Off)
-visualizer_outputfile                 NULL # Specifies the output log file for visualizer
-visualizer_zlevel                      6 # Compression level of the visualizer output log (0=no comp, 9=highest)
-gpgpu_stack_size_limit                 1024 # GPU thread stack size
-gpgpu_heap_size_limit              8388608 # GPU malloc heap size 
-gpgpu_runtime_sync_depth_limit                    2 # GPU device runtime synchronize depth
-gpgpu_runtime_pending_launch_count_limit                 2048 # GPU device runtime pending launch count
-trace_enabled                          0 # Turn on traces
-trace_components                    none # comma seperated list of traces to enable. Complete list found in trace_streams.tup. Default none
-trace_sampling_core                    0 # The core which is printed using CORE_DPRINTF. Default 0
-trace_sampling_memory_partition                   -1 # The memory partition which is printed using MEMPART_DPRINTF. Default -1 (i.e. all)
-enable_ptx_file_line_stats                    1 # Turn on PTX source line statistic profiling. (1 = On)
-ptx_line_stats_filename gpgpu_inst_stats.txt # Output file for PTX source line statistics.
-gpgpu_kernel_launch_latency                    0 # Kernel launch latency in cycles. Default: 0
-gpgpu_cdp_enabled                      0 # Turn on CDP
DRAM Timing Options:
nbk                                    16 # number of banks
CCD                                     1 # column to column delay
RRD                                     3 # minimal delay between activation of rows in different banks
RCD                                    12 # row to column delay
RAS                                    28 # time needed to activate row
RP                                     12 # time needed to precharge (deactivate) row
RC                                     40 # row cycle time
CDLR                                    3 # switching from write to read (changes tWTR)
WR                                     10 # last data-in to row precharge
CL                                     12 # CAS latency
WL                                      2 # Write latency
nbkgrp                                  4 # number of bank groups
CCDL                                    2 # column to column delay between accesses to different bank groups
RTPL                                    3 # read to precharge delay between accesses to different bank groups
Total number of memory sub partition = 256
addr_dec_mask[CHIP]  = 0000000000007f00 	high:15 low:8
addr_dec_mask[BK]    = 0000000000388000 	high:22 low:15
addr_dec_mask[ROW]   = 00000007ffc00000 	high:35 low:22
addr_dec_mask[COL]   = 00000000000700ff 	high:19 low:0
addr_dec_mask[BURST] = 000000000000001f 	high:5 low:0
sub_partition_id_mask = 0000000000008000
GPGPU-Sim uArch: clock freqs: 1455000000.000000:1455000000.000000:1455000000.000000:850000000.000000
GPGPU-Sim uArch: clock periods: 0.00000000068728522337:0.00000000068728522337:0.00000000068728522337:0.00000000117647058824
*** Initializing Memory Statistics ***
GPGPU-Sim uArch: interconnect node map (shaderID+MemID to icntID)
GPGPU-Sim uArch: Memory nodes ID start from index: 16
GPGPU-Sim uArch:    0   1   2   3   4   5   6   7   8   9  10  11  12  13  14  15
GPGPU-Sim uArch:   16  17  18  19  20  21  22  23  24  25  26  27  28  29  30  31
GPGPU-Sim uArch:   32  33  34  35  36  37  38  39  40  41  42  43  44  45  46  47
GPGPU-Sim uArch:   48  49  50  51  52  53  54  55  56  57  58  59  60  61  62  63
GPGPU-Sim uArch:   64  65  66  67  68  69  70  71  72  73  74  75  76  77  78  79
GPGPU-Sim uArch:   80  81  82  83  84  85  86  87  88  89  90  91  92  93  94  95
GPGPU-Sim uArch:   96  97  98  99 100 101 102 103 104 105 106 107 108 109 110 111
GPGPU-Sim uArch:  112 113 114 115 116 117 118 119 120 121 122 123 124 125 126 127
GPGPU-Sim uArch:  128 129 130 131 132 133 134 135 136 137 138 139 140 141 142 143
GPGPU-Sim uArch:  144 145 146 147 148 149 150 151 152 153 154 155 156 157 158 159
GPGPU-Sim uArch:  160 161 162 163 164 165 166 167 168 169 170 171 172 173 174 175
GPGPU-Sim uArch:  176 177 178 179 180 181 182 183 184 185 186 187 188 189 190 191
GPGPU-Sim uArch:  192 193 194 195 196 197 198 199 200 201 202 203 204 205 206 207
GPGPU-Sim uArch:  208 209 210 211 212 213 214 215 216 217 218 219 220 221 222 223
GPGPU-Sim uArch:  224 225 226 227 228 229 230 231 232 233 234 235 236 237 238 239
GPGPU-Sim uArch:  240 241 242 243 244 245 246 247 248 249 250 251 252 253 254 255
GPGPU-Sim uArch:  256 257 258 259 260 261 262 263 264 265 266 267 268 269 270 271
GPGPU-Sim uArch: interconnect node reverse map (icntID to shaderID+MemID)
GPGPU-Sim uArch: Memory nodes start from ID: 16
GPGPU-Sim uArch:    0   1   2   3   4   5   6   7   8   9  10  11  12  13  14  15
GPGPU-Sim uArch:   16  17  18  19  20  21  22  23  24  25  26  27  28  29  30  31
GPGPU-Sim uArch:   32  33  34  35  36  37  38  39  40  41  42  43  44  45  46  47
GPGPU-Sim uArch:   48  49  50  51  52  53  54  55  56  57  58  59  60  61  62  63
GPGPU-Sim uArch:   64  65  66  67  68  69  70  71  72  73  74  75  76  77  78  79
GPGPU-Sim uArch:   80  81  82  83  84  85  86  87  88  89  90  91  92  93  94  95
GPGPU-Sim uArch:   96  97  98  99 100 101 102 103 104 105 106 107 108 109 110 111
GPGPU-Sim uArch:  112 113 114 115 116 117 118 119 120 121 122 123 124 125 126 127
GPGPU-Sim uArch:  128 129 130 131 132 133 134 135 136 137 138 139 140 141 142 143
GPGPU-Sim uArch:  144 145 146 147 148 149 150 151 152 153 154 155 156 157 158 159
GPGPU-Sim uArch:  160 161 162 163 164 165 166 167 168 169 170 171 172 173 174 175
GPGPU-Sim uArch:  176 177 178 179 180 181 182 183 184 185 186 187 188 189 190 191
GPGPU-Sim uArch:  192 193 194 195 196 197 198 199 200 201 202 203 204 205 206 207
GPGPU-Sim uArch:  208 209 210 211 212 213 214 215 216 217 218 219 220 221 222 223
GPGPU-Sim uArch:  224 225 226 227 228 229 230 231 232 233 234 235 236 237 238 239
GPGPU-Sim uArch:  240 241 242 243 244 245 246 247 248 249 250 251 252 253 254 255
GPGPU-Sim uArch:  256 257 258 259 260 261 262 263 264 265 266 267 268 269 270 271
acfad532b36bf3d6bee3aca2b2068a7d  /home/seongguk/rodinia_3.1_dev/bin/linux/cuda/backprop
Extracting PTX file and ptxas options    1: backprop.1.sm_30.ptx -arch=sm_30
GPGPU-Sim uArch: performance model initialization complete.
self exe links to: /home/seongguk/rodinia_3.1_dev/bin/linux/cuda/backprop
self exe links to: /home/seongguk/rodinia_3.1_dev/bin/linux/cuda/backprop
9.1
GPGPU-Sim PTX: __cudaRegisterFatBinary, fat_cubin_handle = 1, filename=default
self exe links to: /home/seongguk/rodinia_3.1_dev/bin/linux/cuda/backprop
Running md5sum using "md5sum /home/seongguk/rodinia_3.1_dev/bin/linux/cuda/backprop "
self exe links to: /home/seongguk/rodinia_3.1_dev/bin/linux/cuda/backprop
Extracting specific PTX file named backprop.1.sm_30.ptx 
GPGPU-Sim PTX: __cudaRegisterFunction _Z24bpnn_adjust_weights_cudaPfiS_iS_S_ : hostFun 0x0x402350, fat_cubin_handle = 1
GPGPU-Sim PTX: Parsing backprop.1.sm_30.ptx
GPGPU-Sim PTX: allocating shared region for "_Z22bpnn_layerforward_CUDAPfS_S_S_ii$__cuda_local_var_17647_34_non_const_input_node" from 0x0 to 0x40 (shared memory space)
GPGPU-Sim PTX: allocating shared region for "_Z22bpnn_layerforward_CUDAPfS_S_S_ii$__cuda_local_var_17648_34_non_const_weight_matrix" from 0x80 to 0x480 (shared memory space)
GPGPU-Sim PTX: instruction assembly for function '_Z22bpnn_layerforward_CUDAPfS_S_S_ii'...   done.
GPGPU-Sim PTX: instruction assembly for function '_Z24bpnn_adjust_weights_cudaPfiS_iS_S_'...   done.
GPGPU-Sim PTX: finished parsing EMBEDDED .ptx file backprop.1.sm_30.ptx
GPGPU-Sim PTX: loading globals with explicit initializers... 
GPGPU-Sim PTX: finished loading globals (0 bytes total).
GPGPU-Sim PTX: loading constants with explicit initializers...  done.
GPGPU-Sim PTX: Loading PTXInfo from backprop.1.sm_30.ptx
GPGPU-Sim PTX: Kernel '_Z24bpnn_adjust_weights_cudaPfiS_iS_S_' : regs=21, lmem=0, smem=0, cmem=376
GPGPU-Sim PTX: Kernel '_Z22bpnn_layerforward_CUDAPfS_S_S_ii' : regs=14, lmem=0, smem=1088, cmem=360
GPGPU-Sim PTX: __cudaRegisterFunction _Z22bpnn_layerforward_CUDAPfS_S_S_ii : hostFun 0x0x402270, fat_cubin_handle = 1
Random number generator seed: 7
Input layer size : 524288
Starting training kernel
Performing GPU computation
GPGPU-Sim PTX: Setting up arguments for 8 bytes starting at 0x7ffe936587c8..
GPGPU-Sim PTX: Setting up arguments for 8 bytes starting at 0x7ffe936587c0..
GPGPU-Sim PTX: Setting up arguments for 8 bytes starting at 0x7ffe936587b8..
GPGPU-Sim PTX: Setting up arguments for 8 bytes starting at 0x7ffe936587b0..
GPGPU-Sim PTX: Setting up arguments for 4 bytes starting at 0x7ffe936587ac..
GPGPU-Sim PTX: Setting up arguments for 4 bytes starting at 0x7ffe936587a8..

GPGPU-Sim PTX: cudaLaunch for 0x0x402270 (mode=performance simulation) on stream 0
GPGPU-Sim PTX: finding reconvergence points for '_Z22bpnn_layerforward_CUDAPfS_S_S_ii'...
GPGPU-Sim PTX: Finding dominators for '_Z22bpnn_layerforward_CUDAPfS_S_S_ii'...
GPGPU-Sim PTX: Finding immediate dominators for '_Z22bpnn_layerforward_CUDAPfS_S_S_ii'...
GPGPU-Sim PTX: Finding postdominators for '_Z22bpnn_layerforward_CUDAPfS_S_S_ii'...
GPGPU-Sim PTX: Finding immediate postdominators for '_Z22bpnn_layerforward_CUDAPfS_S_S_ii'...
GPGPU-Sim PTX: pre-decoding instructions for '_Z22bpnn_layerforward_CUDAPfS_S_S_ii'...
GPGPU-Sim PTX: reconvergence points for _Z22bpnn_layerforward_CUDAPfS_S_S_ii...
GPGPU-Sim PTX:  1 (potential) branch divergence @  PC=0x068 (backprop.1.sm_30.ptx:48) @%p2 bra BB0_2;
GPGPU-Sim PTX:    immediate post dominator      @  PC=0x098 (backprop.1.sm_30.ptx:57) cvta.to.global.u64 %rd1, %rd4;
GPGPU-Sim PTX:  2 (potential) branch divergence @  PC=0x150 (backprop.1.sm_30.ptx:80) @%p3 bra BB0_7;
GPGPU-Sim PTX:    immediate post dominator      @  PC=0x228 (backprop.1.sm_30.ptx:115) setp.eq.s32%p1, %r4, 0;
GPGPU-Sim PTX:  3 (potential) branch divergence @  PC=0x1a0 (backprop.1.sm_30.ptx:93) @%p4 bra BB0_6;
GPGPU-Sim PTX:    immediate post dominator      @  PC=0x200 (backprop.1.sm_30.ptx:108) bar.sync 0;
GPGPU-Sim PTX:  4 (potential) branch divergence @  PC=0x220 (backprop.1.sm_30.ptx:112) @%p5 bra BB0_4;
GPGPU-Sim PTX:    immediate post dominator      @  PC=0x228 (backprop.1.sm_30.ptx:115) setp.eq.s32%p1, %r4, 0;
GPGPU-Sim PTX:  5 (potential) branch divergence @  PC=0x248 (backprop.1.sm_30.ptx:119) @!%p1 bra BB0_9;
GPGPU-Sim PTX:    immediate post dominator      @  PC=0x290 (backprop.1.sm_30.ptx:132) ret;
GPGPU-Sim PTX:  6 (potential) branch divergence @  PC=0x250 (backprop.1.sm_30.ptx:120) bra.uni BB0_8;
GPGPU-Sim PTX:    immediate post dominator      @  PC=0x258 (backprop.1.sm_30.ptx:123) cvta.to.global.u64 %rd10, %rd5;
GPGPU-Sim PTX: ... end of reconvergence points for _Z22bpnn_layerforward_CUDAPfS_S_S_ii
GPGPU-Sim PTX: ... done pre-decoding instructions for '_Z22bpnn_layerforward_CUDAPfS_S_S_ii'.
GPGPU-Sim PTX: pushing kernel '_Z22bpnn_layerforward_CUDAPfS_S_S_ii' to stream 0, gridDim= (1,32768,1) blockDim = (16,16,1) 
GPGPU-Sim uArch: Shader 0 bind to kernel 1 '_Z22bpnn_layerforward_CUDAPfS_S_S_ii'
GPGPU-Sim uArch: CTA/core = 8, limited by: threads
GPGPU-Sim: Reconfigure L1 cache in Volta Archi to 112KB
GPGPU-Sim uArch: Shader 2 bind to kernel 1 '_Z22bpnn_layerforward_CUDAPfS_S_S_ii'
GPGPU-Sim uArch: Shader 4 bind to kernel 1 '_Z22bpnn_layerforward_CUDAPfS_S_S_ii'
GPGPU-Sim uArch: Shader 6 bind to kernel 1 '_Z22bpnn_layerforward_CUDAPfS_S_S_ii'
GPGPU-Sim uArch: Shader 8 bind to kernel 1 '_Z22bpnn_layerforward_CUDAPfS_S_S_ii'
GPGPU-Sim uArch: Shader 10 bind to kernel 1 '_Z22bpnn_layerforward_CUDAPfS_S_S_ii'
GPGPU-Sim uArch: Shader 12 bind to kernel 1 '_Z22bpnn_layerforward_CUDAPfS_S_S_ii'
GPGPU-Sim uArch: Shader 14 bind to kernel 1 '_Z22bpnn_layerforward_CUDAPfS_S_S_ii'
GPGPU-Sim uArch: Shader 16 bind to kernel 1 '_Z22bpnn_layerforward_CUDAPfS_S_S_ii'
GPGPU-Sim uArch: Shader 18 bind to kernel 1 '_Z22bpnn_layerforward_CUDAPfS_S_S_ii'
GPGPU-Sim uArch: Shader 20 bind to kernel 1 '_Z22bpnn_layerforward_CUDAPfS_S_S_ii'
GPGPU-Sim uArch: Shader 22 bind to kernel 1 '_Z22bpnn_layerforward_CUDAPfS_S_S_ii'
GPGPU-Sim uArch: Shader 24 bind to kernel 1 '_Z22bpnn_layerforward_CUDAPfS_S_S_ii'
GPGPU-Sim uArch: Shader 26 bind to kernel 1 '_Z22bpnn_layerforward_CUDAPfS_S_S_ii'
GPGPU-Sim uArch: Shader 28 bind to kernel 1 '_Z22bpnn_layerforward_CUDAPfS_S_S_ii'
GPGPU-Sim uArch: Shader 30 bind to kernel 1 '_Z22bpnn_layerforward_CUDAPfS_S_S_ii'
GPGPU-Sim uArch: Shader 1 bind to kernel 1 '_Z22bpnn_layerforward_CUDAPfS_S_S_ii'
GPGPU-Sim uArch: Shader 3 bind to kernel 1 '_Z22bpnn_layerforward_CUDAPfS_S_S_ii'
GPGPU-Sim uArch: Shader 5 bind to kernel 1 '_Z22bpnn_layerforward_CUDAPfS_S_S_ii'
GPGPU-Sim uArch: Shader 7 bind to kernel 1 '_Z22bpnn_layerforward_CUDAPfS_S_S_ii'
GPGPU-Sim uArch: Shader 9 bind to kernel 1 '_Z22bpnn_layerforward_CUDAPfS_S_S_ii'
GPGPU-Sim uArch: Shader 11 bind to kernel 1 '_Z22bpnn_layerforward_CUDAPfS_S_S_ii'
GPGPU-Sim uArch: Shader 13 bind to kernel 1 '_Z22bpnn_layerforward_CUDAPfS_S_S_ii'
GPGPU-Sim uArch: Shader 15 bind to kernel 1 '_Z22bpnn_layerforward_CUDAPfS_S_S_ii'
GPGPU-Sim uArch: Shader 17 bind to kernel 1 '_Z22bpnn_layerforward_CUDAPfS_S_S_ii'
GPGPU-Sim uArch: Shader 19 bind to kernel 1 '_Z22bpnn_layerforward_CUDAPfS_S_S_ii'
GPGPU-Sim uArch: Shader 21 bind to kernel 1 '_Z22bpnn_layerforward_CUDAPfS_S_S_ii'
GPGPU-Sim uArch: Shader 23 bind to kernel 1 '_Z22bpnn_layerforward_CUDAPfS_S_S_ii'
GPGPU-Sim uArch: Shader 25 bind to kernel 1 '_Z22bpnn_layerforward_CUDAPfS_S_S_ii'
GPGPU-Sim uArch: Shader 27 bind to kernel 1 '_Z22bpnn_layerforward_CUDAPfS_S_S_ii'
GPGPU-Sim uArch: Shader 29 bind to kernel 1 '_Z22bpnn_layerforward_CUDAPfS_S_S_ii'
GPGPU-Sim uArch: Shader 31 bind to kernel 1 '_Z22bpnn_layerforward_CUDAPfS_S_S_ii'
Destroy streams for kernel 1: size 0
kernel_name = _Z22bpnn_layerforward_CUDAPfS_S_S_ii 
kernel_launch_uid = 1 
gpu_sim_cycle = 556205
gpu_sim_insn = 839385088
gpu_ipc =    1509.1290
gpu_tot_sim_cycle = 556205
gpu_tot_sim_insn = 839385088
gpu_tot_ipc =    1509.1290
gpu_tot_issued_cta = 32768
gpu_occupancy = 99.1009% 
gpu_tot_occupancy = 99.1009% 
max_total_param_size = 0
gpu_stall_dramfull = 280
gpu_stall_icnt2sh    = 0
partiton_level_parallism =       5.0618
partiton_level_parallism_total  =       5.0618
partiton_level_parallism_util =       5.7608
partiton_level_parallism_util_total  =       5.7608
L2_BW  =     235.7274 GB/Sec
L2_BW_total  =     235.7274 GB/Sec
gpu_total_sim_rate=163368

========= Core cache stats =========
L1I_cache:
	L1I_total_cache_accesses = 17629184
	L1I_total_cache_misses = 8579
	L1I_total_cache_miss_rate = 0.0005
	L1I_total_cache_pending_hits = 0
	L1I_total_cache_reservation_fails = 35500
L1D_cache:
	L1D_cache_core[0]: Access = 200606, Miss = 129048, Miss_rate = 0.643, Pending_hits = 0, Reservation_fails = 100
	L1D_cache_core[1]: Access = 200606, Miss = 129022, Miss_rate = 0.643, Pending_hits = 0, Reservation_fails = 174
	L1D_cache_core[2]: Access = 200606, Miss = 129030, Miss_rate = 0.643, Pending_hits = 0, Reservation_fails = 0
	L1D_cache_core[3]: Access = 200900, Miss = 129245, Miss_rate = 0.643, Pending_hits = 0, Reservation_fails = 0
	L1D_cache_core[4]: Access = 200802, Miss = 129178, Miss_rate = 0.643, Pending_hits = 0, Reservation_fails = 245
	L1D_cache_core[5]: Access = 200606, Miss = 129065, Miss_rate = 0.643, Pending_hits = 0, Reservation_fails = 229
	L1D_cache_core[6]: Access = 200704, Miss = 129099, Miss_rate = 0.643, Pending_hits = 0, Reservation_fails = 201
	L1D_cache_core[7]: Access = 200606, Miss = 129069, Miss_rate = 0.643, Pending_hits = 0, Reservation_fails = 480
	L1D_cache_core[8]: Access = 200606, Miss = 129063, Miss_rate = 0.643, Pending_hits = 0, Reservation_fails = 148
	L1D_cache_core[9]: Access = 200704, Miss = 129116, Miss_rate = 0.643, Pending_hits = 0, Reservation_fails = 202
	L1D_cache_core[10]: Access = 200704, Miss = 129105, Miss_rate = 0.643, Pending_hits = 0, Reservation_fails = 97
	L1D_cache_core[11]: Access = 200900, Miss = 129212, Miss_rate = 0.643, Pending_hits = 0, Reservation_fails = 334
	L1D_cache_core[12]: Access = 200900, Miss = 129219, Miss_rate = 0.643, Pending_hits = 0, Reservation_fails = 333
	L1D_cache_core[13]: Access = 200704, Miss = 129123, Miss_rate = 0.643, Pending_hits = 0, Reservation_fails = 173
	L1D_cache_core[14]: Access = 200410, Miss = 128992, Miss_rate = 0.644, Pending_hits = 0, Reservation_fails = 270
	L1D_cache_core[15]: Access = 200900, Miss = 129240, Miss_rate = 0.643, Pending_hits = 0, Reservation_fails = 227
	L1D_total_cache_accesses = 3211264
	L1D_total_cache_misses = 2065826
	L1D_total_cache_miss_rate = 0.6433
	L1D_total_cache_pending_hits = 0
	L1D_total_cache_reservation_fails = 3213
	L1D_cache_data_port_util = 0.016
	L1D_cache_fill_port_util = 0.017
L1C_cache:
	L1C_total_cache_accesses = 1048576
	L1C_total_cache_misses = 2048
	L1C_total_cache_miss_rate = 0.0020
	L1C_total_cache_pending_hits = 0
	L1C_total_cache_reservation_fails = 31516
L1T_cache:
	L1T_total_cache_accesses = 0
	L1T_total_cache_misses = 0
	L1T_total_cache_pending_hits = 0
	L1T_total_cache_reservation_fails = 0

Total_core_cache_stats:
	Total_core_cache_stats_breakdown[GLOBAL_ACC_R][HIT] = 0
	Total_core_cache_stats_breakdown[GLOBAL_ACC_R][HIT_RESERVED] = 0
	Total_core_cache_stats_breakdown[GLOBAL_ACC_R][MISS] = 862172
	Total_core_cache_stats_breakdown[GLOBAL_ACC_R][RESERVATION_FAIL] = 3213
	Total_core_cache_stats_breakdown[GLOBAL_ACC_R][SECTOR_MISS] = 776228
	Total_core_cache_stats_breakdown[LOCAL_ACC_R][HIT] = 0
	Total_core_cache_stats_breakdown[LOCAL_ACC_R][HIT_RESERVED] = 0
	Total_core_cache_stats_breakdown[LOCAL_ACC_R][MISS] = 0
	Total_core_cache_stats_breakdown[LOCAL_ACC_R][RESERVATION_FAIL] = 0
	Total_core_cache_stats_breakdown[LOCAL_ACC_R][SECTOR_MISS] = 0
	Total_core_cache_stats_breakdown[CONST_ACC_R][HIT] = 1046528
	Total_core_cache_stats_breakdown[CONST_ACC_R][HIT_RESERVED] = 0
	Total_core_cache_stats_breakdown[CONST_ACC_R][MISS] = 2048
	Total_core_cache_stats_breakdown[CONST_ACC_R][RESERVATION_FAIL] = 31516
	Total_core_cache_stats_breakdown[CONST_ACC_R][SECTOR_MISS] = 0
	Total_core_cache_stats_breakdown[TEXTURE_ACC_R][HIT] = 0
	Total_core_cache_stats_breakdown[TEXTURE_ACC_R][HIT_RESERVED] = 0
	Total_core_cache_stats_breakdown[TEXTURE_ACC_R][MISS] = 0
	Total_core_cache_stats_breakdown[TEXTURE_ACC_R][RESERVATION_FAIL] = 0
	Total_core_cache_stats_breakdown[TEXTURE_ACC_R][SECTOR_MISS] = 0
	Total_core_cache_stats_breakdown[GLOBAL_ACC_W][HIT] = 1145438
	Total_core_cache_stats_breakdown[GLOBAL_ACC_W][HIT_RESERVED] = 0
	Total_core_cache_stats_breakdown[GLOBAL_ACC_W][MISS] = 408365
	Total_core_cache_stats_breakdown[GLOBAL_ACC_W][RESERVATION_FAIL] = 0
	Total_core_cache_stats_breakdown[GLOBAL_ACC_W][SECTOR_MISS] = 19061
	Total_core_cache_stats_breakdown[LOCAL_ACC_W][HIT] = 0
	Total_core_cache_stats_breakdown[LOCAL_ACC_W][HIT_RESERVED] = 0
	Total_core_cache_stats_breakdown[LOCAL_ACC_W][MISS] = 0
	Total_core_cache_stats_breakdown[LOCAL_ACC_W][RESERVATION_FAIL] = 0
	Total_core_cache_stats_breakdown[LOCAL_ACC_W][SECTOR_MISS] = 0
	Total_core_cache_stats_breakdown[L1_WRBK_ACC][HIT] = 0
	Total_core_cache_stats_breakdown[L1_WRBK_ACC][HIT_RESERVED] = 0
	Total_core_cache_stats_breakdown[L1_WRBK_ACC][MISS] = 0
	Total_core_cache_stats_breakdown[L1_WRBK_ACC][RESERVATION_FAIL] = 0
	Total_core_cache_stats_breakdown[L1_WRBK_ACC][SECTOR_MISS] = 0
	Total_core_cache_stats_breakdown[L2_WRBK_ACC][HIT] = 0
	Total_core_cache_stats_breakdown[L2_WRBK_ACC][HIT_RESERVED] = 0
	Total_core_cache_stats_breakdown[L2_WRBK_ACC][MISS] = 0
	Total_core_cache_stats_breakdown[L2_WRBK_ACC][RESERVATION_FAIL] = 0
	Total_core_cache_stats_breakdown[L2_WRBK_ACC][SECTOR_MISS] = 0
	Total_core_cache_stats_breakdown[INST_ACC_R][HIT] = 17620605
	Total_core_cache_stats_breakdown[INST_ACC_R][HIT_RESERVED] = 0
	Total_core_cache_stats_breakdown[INST_ACC_R][MISS] = 8579
	Total_core_cache_stats_breakdown[INST_ACC_R][RESERVATION_FAIL] = 35500
	Total_core_cache_stats_breakdown[INST_ACC_R][SECTOR_MISS] = 0
	Total_core_cache_stats_breakdown[L1_WR_ALLOC_R][HIT] = 0
	Total_core_cache_stats_breakdown[L1_WR_ALLOC_R][HIT_RESERVED] = 0
	Total_core_cache_stats_breakdown[L1_WR_ALLOC_R][MISS] = 0
	Total_core_cache_stats_breakdown[L1_WR_ALLOC_R][RESERVATION_FAIL] = 0
	Total_core_cache_stats_breakdown[L1_WR_ALLOC_R][SECTOR_MISS] = 0
	Total_core_cache_stats_breakdown[L2_WR_ALLOC_R][HIT] = 0
	Total_core_cache_stats_breakdown[L2_WR_ALLOC_R][HIT_RESERVED] = 0
	Total_core_cache_stats_breakdown[L2_WR_ALLOC_R][MISS] = 0
	Total_core_cache_stats_breakdown[L2_WR_ALLOC_R][RESERVATION_FAIL] = 0
	Total_core_cache_stats_breakdown[L2_WR_ALLOC_R][SECTOR_MISS] = 0
	Total_core_cache_stats_breakdown[GLOBAL_ACC_R][TOTAL_ACCESS] = 1638400
	Total_core_cache_stats_breakdown[CONST_ACC_R][TOTAL_ACCESS] = 1048576
	Total_core_cache_stats_breakdown[GLOBAL_ACC_W][TOTAL_ACCESS] = 1572864
	Total_core_cache_stats_breakdown[INST_ACC_R][TOTAL_ACCESS] = 17629184

Total_core_cache_fail_stats:
	Total_core_cache_fail_stats_breakdown[GLOBAL_ACC_R][MISS_QUEUE_FULL] = 3213
	Total_core_cache_fail_stats_breakdown[CONST_ACC_R][MSHR_MERGE_ENRTY_FAIL] = 31516
	Total_core_cache_fail_stats_breakdown[INST_ACC_R][MSHR_MERGE_ENRTY_FAIL] = 35500
Shader 0 warp_id issue ditsribution:
warp_id:
0, 1, 2, 3, 4, 5, 6, 7, 8, 9, 10, 11, 12, 13, 14, 15, 16, 17, 18, 19, 20, 21, 22, 23, 24, 25, 26, 27, 28, 29, 30, 31, 32, 33, 34, 35, 36, 37, 38, 39, 40, 41, 42, 43, 44, 45, 46, 47, 48, 49, 50, 51, 52, 53, 54, 55, 56, 57, 58, 59, 60, 61, 62, 63, 
distro:
19072, 14848, 16256, 14848, 17664, 14848, 16256, 14848, 19072, 14848, 16256, 14848, 17664, 14848, 16256, 14848, 19072, 14848, 16256, 14848, 17664, 14848, 16256, 14848, 19072, 14848, 16256, 14848, 17664, 14848, 16256, 14848, 18923, 14732, 16129, 14732, 17526, 14732, 16129, 14732, 19072, 14848, 16256, 14848, 17664, 14848, 16256, 14848, 19072, 14848, 16256, 14848, 17664, 14848, 16256, 14848, 19072, 14848, 16256, 14848, 17664, 14848, 16256, 14848, 
gpgpu_n_tot_thrd_icount = 1053818880
gpgpu_n_tot_w_icount = 32931840
gpgpu_n_stall_shd_mem = 2195531
gpgpu_n_mem_read_local = 0
gpgpu_n_mem_write_local = 0
gpgpu_n_mem_read_global = 1242300
gpgpu_n_mem_write_global = 1572864
gpgpu_n_mem_texture = 0
gpgpu_n_mem_const = 32
gpgpu_n_load_insn  = 8912896
gpgpu_n_store_insn = 8912896
gpgpu_n_shmem_insn = 66584576
gpgpu_n_sstarr_insn = 0
gpgpu_n_tex_insn = 0
gpgpu_n_const_mem_insn = 0
gpgpu_n_param_mem_insn = 33554432
gpgpu_n_shmem_bkconflict = 0
gpgpu_n_cache_bkconflict = 0
gpgpu_n_intrawarp_mshr_merge = 0
gpgpu_n_cmem_portconflict = 31516
gpgpu_stall_shd_mem[c_mem][resource_stall] = 31516
gpgpu_stall_shd_mem[s_mem][bk_conf] = 0
gpgpu_stall_shd_mem[gl_mem][resource_stall] = 1327
gpgpu_stall_shd_mem[gl_mem][coal_stall] = 2162688
gpgpu_stall_shd_mem[gl_mem][data_port_stall] = 0
gpu_reg_bank_conflict_stalls = 0
Warp Occupancy Distribution:
Stall:913850	W0_Idle:2716233	W0_Scoreboard:34507701	W1:0	W2:3407872	W3:0	W4:0	W5:0	W6:0	W7:0	W8:0	W9:0	W10:0	W11:0	W12:0	W13:0	W14:0	W15:0	W16:5406720	W17:0	W18:0	W19:0	W20:0	W21:0	W22:0	W23:0	W24:0	W25:0	W26:0	W27:0	W28:0	W29:0	W30:0	W31:0	W32:24117248
single_issue_nums: WS0:9404416	WS1:7602176	WS2:8323072	WS3:7602176	
dual_issue_nums: WS0:0	WS1:0	WS2:0	WS3:0	
traffic_breakdown_coretomem[CONST_ACC_R] = 256 {8:32,}
traffic_breakdown_coretomem[GLOBAL_ACC_R] = 9938400 {8:1242300,}
traffic_breakdown_coretomem[GLOBAL_ACC_W] = 62914560 {40:1572864,}
traffic_breakdown_coretomem[INST_ACC_R] = 1536 {8:192,}
traffic_breakdown_memtocore[CONST_ACC_R] = 2560 {40:64,}
traffic_breakdown_memtocore[GLOBAL_ACC_R] = 49692000 {40:1242300,}
traffic_breakdown_memtocore[GLOBAL_ACC_W] = 12582912 {8:1572864,}
traffic_breakdown_memtocore[INST_ACC_R] = 30720 {40:768,}
maxmflatency = 774 
max_icnt2mem_latency = 379 
maxmrqlatency = 233 
max_icnt2sh_latency = 330 
averagemflatency = 230 
avg_icnt2mem_latency = 33 
avg_mrq_latency = 15 
avg_icnt2sh_latency = 11 
mrq_lat_table:203608 	373621 	279720 	155836 	31747 	175562 	42336 	25223 	0 	0 	0 	0 	0 	0 	0 	0 	0 	0 	0 	0 	0 	0 	0 	0 	0 	0 	0 	0 	0 	0 	0 	0 	
dq_lat_table:0 	0 	0 	0 	0 	0 	0 	0 	0 	0 	0 	0 	0 	0 	0 	0 	0 	0 	0 	0 	0 	0 	0 	0 	0 	0 	0 	0 	0 	0 	0 	0 	
mf_lat_table:0 	0 	0 	0 	0 	0 	0 	1573853 	1238176 	3199 	0 	0 	0 	0 	0 	0 	0 	0 	0 	0 	0 	0 	0 	0 	0 	0 	0 	0 	0 	0 	0 	0 	
icnt2mem_lat_table:0 	0 	108 	298775 	1461521 	818626 	219901 	14170 	2287 	0 	0 	0 	0 	0 	0 	0 	0 	0 	0 	0 	0 	0 	0 	0 	
icnt2sh_lat_table:0 	0 	1454381 	975647 	233274 	125654 	25670 	592 	10 	0 	0 	0 	0 	0 	0 	0 	0 	0 	0 	0 	0 	0 	0 	0 	
mf_lat_pw_table:0 	0 	0 	0 	0 	0 	0 	731 	360 	1 	0 	0 	0 	0 	0 	0 	0 	0 	0 	0 	0 	0 	0 	0 	0 	0 	0 	0 	0 	0 	0 	0 	
maximum concurrent accesses to same row:
dram[0]:        64        64        64        64        64        64        64        64        64        64        64        64        64        64        64        64 
dram[1]:        64        64        64        64        64        64        64        64        64        64        64        64        64        64        64        64 
dram[2]:        64        64        64        64        64        64        64        64        64        64        64        64        64        64        64        64 
dram[3]:        64        64        64        64        64        64        64        64        64        64        64        64        64        64        64        64 
dram[4]:        64        64        64        64        64        64        64        64        64        64        64        64        64        64        64        64 
dram[5]:        64        64        64        64        64        64        64        64        64        64        64        64        64        64        64        64 
dram[6]:        64        64        64        64        64        64        64        64        64        64        64        64        64        64        64        64 
dram[7]:        64        64        64        64        64        64        64        64        64        64        64        64        64        64        64        64 
dram[8]:        64        64        64        64        64        64        64        64        64        64        64        64        64        64        64        64 
dram[9]:        64        64        64        64        64        64        64        64        64        64        64        64        64        64        64        64 
dram[10]:        64        64        64        64        64        64        64        64        64        64        64        64        64        64        64        64 
dram[11]:        64        64        64        64        64        64        64        64        64        64        64        64        64        64        64        64 
dram[12]:        64        64        64        64        64        64        64        64        64        64        64        64        64        64        64        64 
dram[13]:        64        64        64        64        64        64        64        64        64        64        64        64        64        64        64        64 
dram[14]:        64        64        64        64        64        64        64        64        64        64        64        64        64        64        64        64 
dram[15]:        64        64        64        64        64        64        64        64        64        64        64        64        64        64        64        64 
dram[16]:        64        64        64        64        64        64        64        64        64        64        64        64        64        64        64        64 
dram[17]:        64        64        64        64        64        64        64        64        64        64        64        64        64        64        64        64 
dram[18]:        64        64        64        64        64        64        64        64        64        64        64        64        64        64        64        64 
dram[19]:        64        64        64        64        64        64        64        64        64        64        64        64        64        64        64        64 
dram[20]:        64        64        64        64        64        64        64        64        64        64        64        64        64        64        64        64 
dram[21]:        64        64        64        64        64        64        64        64        64        64        64        64        64        64        64        64 
dram[22]:        64        64        64        64        64        64        64        64        64        64        64        64        64        64        64        64 
dram[23]:        64        64        64        64        64        64        64        64        64        64        64        64        64        64        64        64 
dram[24]:        64        64        64        64        64        64        64        64        64        64        64        64        64        64        64        64 
dram[25]:        64        64        64        64        64        64        64        64        64        64        64        64        64        64        64        64 
dram[26]:        64        64        64        64        64        64        64        64        64        64        64        64        64        64        64        64 
dram[27]:        64        64        64        64        64        64        64        64        64        64        64        64        64        64        64        64 
dram[28]:        64        64        64        64        64        64        64        64        64        64        64        64        64        64        64        64 
dram[29]:        64        64        64        64        64        64        64        64        64        64        64        64        64        64        64        64 
dram[30]:        64        64        64        64        64        64        64        64        64        64        64        64        64        64        64        64 
dram[31]:        64        64        64        64        64        64        64        64        64        64        64        64        64        64        64        64 
dram[32]:        64        64        64        64        64        64        64        64        64        64        64        64        64        64        64        64 
dram[33]:        64        64        64        64        64        64        64        64        64        64        64        64        64        64        64        64 
dram[34]:        64        64        64        64        64        64        64        64        64        64        64        64        64        64        64        64 
dram[35]:        64        64        64        64        64        64        64        64        64        64        64        64        64        64        64        64 
dram[36]:        64        64        64        64        64        64        64        64        64        64        64        64        64        64        64        64 
dram[37]:        64        64        64        64        64        64        64        64        64        64        64        64        64        64        64        64 
dram[38]:        64        64        64        64        64        64        64        64        64        64        64        64        64        64        64        64 
dram[39]:        64        64        64        64        64        64        64        64        64        64        64        64        64        64        64        64 
dram[40]:        64        64        64        64        64        64        64        64        64        64        64        64        64        64        64        64 
dram[41]:        64        64        64        64        64        64        64        64        64        64        64        64        64        64        64        64 
dram[42]:        64        64        64        64        64        64        64        64        64        64        64        64        64        64        64        64 
dram[43]:        64        64        64        64        64        64        64        64        64        64        64        64        64        64        64        64 
dram[44]:        64        64        64        64        64        64        64        64        64        64        64        64        64        64        64        64 
dram[45]:        64        64        64        64        64        64        64        64        64        64        64        64        64        64        64        64 
dram[46]:        64        64        64        64        64        64        64        64        64        64        64        64        64        64        64        64 
dram[47]:        64        64        64        64        64        64        64        64        64        64        64        64        64        64        64        64 
dram[48]:        64        64        64        64        64        64        64        64        64        64        64        64        64        64        64        64 
dram[49]:        64        64        64        64        64        64        64        64        64        64        64        64        64        64        64        64 
dram[50]:        64        64        64        64        64        64        64        64        64        64        64        64        64        64        64        64 
dram[51]:        64        64        64        64        64        64        64        64        64        64        64        64        64        64        64        64 
dram[52]:        64        64        64        64        64        64        64        64        64        64        64        64        64        64        64        64 
dram[53]:        64        64        64        64        64        64        64        64        64        64        64        64        64        64        64        64 
dram[54]:        64        64        64        64        64        64        64        64        64        64        64        64        64        64        64        64 
dram[55]:        64        64        64        64        64        64        64        64        64        64        64        64        64        64        64        64 
dram[56]:        64        64        64        64        64        64        64        64        64        64        64        64        64        64        64        64 
dram[57]:        64        64        64        64        64        64        64        64        64        64        64        64        64        64        64        64 
dram[58]:        64        64        64        64        64        64        64        64        64        64        64        64        64        64        64        64 
dram[59]:        64        64        64        64        64        64        64        64        64        64        64        64        64        64        64        64 
dram[60]:        64        64        64        64        64        64        64        64        64        64        64        64        64        64        64        64 
dram[61]:        64        64        64        64        64        64        64        64        64        64        64        64        64        64        64        64 
dram[62]:        64        64        64        64        64        64        64        64        64        64        64        64        64        64        64        64 
dram[63]:        64        64        64        64        64        64        64        64        64        64        64        64        64        64        64        64 
dram[64]:        64        64        64        64        64        64        64        64        64        64        64        64        64        64        64        64 
dram[65]:        64        64        64        64        64        64        64        64        64        64        64        64        64        64        64        64 
dram[66]:        64        64        64        64        64        64        64        64        64        64        64        64        64        64        64        64 
dram[67]:        64        64        64        64        64        64        64        64        64        64        64        64        64        64        64        64 
dram[68]:        64        64        64        64        64        64        64        64        64        64        64        64        64        64        64        64 
dram[69]:        64        64        64        64        64        64        64        64        64        64        64        64        64        64        64        64 
dram[70]:        64        64        64        64        64        64        64        64        64        64        64        64        64        64        64        64 
dram[71]:        64        64        64        64        64        64        64        64        64        64        64        64        64        64        64        64 
dram[72]:        64        64        64        64        64        64        64        64        64        64        64        64        64        64        64        64 
dram[73]:        64        64        64        64        64        64        64        64        64        64        64        64        64        64        64        64 
dram[74]:        64        64        64        64        64        64        64        64        64        64        64        64        64        64        64        64 
dram[75]:        64        64        64        64        64        64        64        64        64        64        64        64        64        64        64        64 
dram[76]:        64        64        64        64        64        64        64        64        64        64        64        64        64        64        64        64 
dram[77]:        64        64        64        64        64        64        64        64        64        64        64        64        64        64        64        64 
dram[78]:        64        64        64        64        64        64        64        64        64        64        64        64        64        64        64        64 
dram[79]:        64        64        64        64        64        64        64        64        64        64        64        64        64        64        64        64 
dram[80]:        64        64        64        64        64        64        64        64        64        64        64        64        64        64        64        64 
dram[81]:        64        64        64        64        64        64        64        64        64        64        64        64        64        64        64        64 
dram[82]:        64        64        64        64        64        64        64        64        64        64        64        64        64        64        64        64 
dram[83]:        64        64        64        64        64        64        64        64        64        64        64        64        64        64        64        64 
dram[84]:        64        64        64        64        64        64        64        64        64        64        64        64        64        64        64        64 
dram[85]:        64        64        64        64        64        64        64        64        64        64        64        64        64        64        64        64 
dram[86]:        64        64        64        64        64        64        64        64        64        64        64        64        64        64        64        64 
dram[87]:        64        64        64        64        64        64        64        64        64        64        64        64        64        64        64        64 
dram[88]:        64        64        64        64        64        64        64        64        64        64        64        64        64        64        64        64 
dram[89]:        64        64        64        64        64        64        64        64        64        64        64        64        64        64        64        64 
dram[90]:        64        64        64        64        64        64        64        64        64        64        64        64        64        64        64        64 
dram[91]:        64        64        64        64        64        64        64        64        64        64        64        64        64        64        64        64 
dram[92]:        64        64        64        64        64        64        64        64        64        64        64        64        64        64        64        64 
dram[93]:        64        64        64        64        64        64        64        64        64        64        64        64        64        64        64        64 
dram[94]:        64        64        64        64        64        64        64        64        64        64        64        64        64        64        64        64 
dram[95]:        64        64        64        64        64        64        64        64        64        64        64        64        64        64        64        64 
dram[96]:        64        64        64        64        64        64        64        64        64        64        64        64        64        64        64        64 
dram[97]:        64        64        64        64        64        64        64        64        64        64        64        64        64        64        64        64 
dram[98]:        64        64        64        64        64        64        64        64        64        64        64        64        64        64        64        64 
dram[99]:        64        64        64        64        64        64        64        64        64        64        64        64        64        64        64        64 
dram[100]:        64        64        64        64        64        64        64        64        64        64        64        64        64        64        64        64 
dram[101]:        64        64        64        64        64        64        64        64        64        64        64        64        64        64        64        64 
dram[102]:        64        64        64        64        64        64        64        64        64        64        64        64        64        64        64        64 
dram[103]:        64        64        64        64        64        64        64        64        64        64        64        64        64        64        64        64 
dram[104]:        64        64        64        64        64        64        64        64        64        64        64        64        64        64        64        64 
dram[105]:        64        64        64        64        64        64        64        64        64        64        64        64        64        64        64        64 
dram[106]:        64        64        64        64        64        64        64        64        64        64        64        64        64        64        64        64 
dram[107]:        64        64        64        64        64        64        64        64        64        64        64        64        64        64        64        64 
dram[108]:        64        64        64        64        64        64        64        64        64        64        64        64        64        64        64        64 
dram[109]:        64        64        64        64        64        64        64        64        64        64        64        64        64        64        64        64 
dram[110]:        64        64        64        64        64        64        64        64        64        64        64        64        64        64        64        64 
dram[111]:        64        64        64        64        64        64        64        64        64        64        64        64        64        64        64        64 
dram[112]:        64        64        64        64        64        64        64        64        64        64        64        64        64        64        64        64 
dram[113]:        64        64        64        64        64        64        64        64        64        64        64        64        64        64        64        64 
dram[114]:        64        64        64        64        64        64        64        64        64        64        64        64        64        64        64        64 
dram[115]:        64        64        64        64        64        64        64        64        64        64        64        64        64        64        64        64 
dram[116]:        64        64        64        64        64        64        64        64        64        64        64        64        64        64        64        64 
dram[117]:        64        64        64        64        64        64        64        64        64        64        64        64        64        64        64        64 
dram[118]:        64        64        64        64        64        64        64        64        64        64        64        64        64        64        64        64 
dram[119]:        64        64        64        64        64        64        64        64        64        64        64        64        64        64        64        64 
dram[120]:        64        64        64        64        64        64        64        64        64        64        64        64        64        64        64        64 
dram[121]:        64        64        64        64        64        64        64        64        64        64        64        64        64        64        64        64 
dram[122]:        64        64        64        64        64        64        64        64        64        64        64        64        64        64        64        64 
dram[123]:        64        64        64        64        64        64        64        64        64        64        64        64        64        64        64        64 
dram[124]:        64        64        64        64        64        64        64        64        64        64        64        64        64        64        64        64 
dram[125]:        64        64        64        64        64        64        64        64        64        64        64        64        64        64        64        64 
dram[126]:        64        64        64        64        64        64        64        64        64        64        64        64        64        64        64        64 
dram[127]:        64        64        64        64        64        64        64        64        64        64        64        64        64        64        64        64 
maximum service time to same row:
dram[0]:     65070     64991     65078     65078     64918     65048     65054     65167     65116     65547     65273     67541     65016     65084     64982     65018 
dram[1]:     65089     65050     65078     65106     64917     64975     65061     65170     65112     65512     65273     67543     65031     65095     64993     65017 
dram[2]:     65090     65053     65071     65106     64913     64977     65061     65188     65156     65515     65327     67429     64982     65160     64994     65018 
dram[3]:     65084     65037     65206     64993     64916     64977     65050     65185     65168     65515     65335     65177     65022     65215     65004     65018 
dram[4]:     65054     65043     65204     65035     64910     65030     65057     65193     65172     65511     65333     65179     65028     65215     65006     65023 
dram[5]:     65041     65071     65208     65006     65035     65155     65108     65213     65119     65507     65333     65112     65015     65207     65007     65023 
dram[6]:     65040     65077     65194     65025     65035     65160     65111     65209     65153     65677     65334     65141     65018     65203     65000     64983 
dram[7]:     65042     65075     65194     65042     65040     65172     65113     65212     65156     65688     65303     65147     65066     65229     65011     65084 
dram[8]:     65047     65087     65254     65135     65040     64940     65115     65226     65155     65660     65306     65130     65114     65249     65012     65090 
dram[9]:     65058     65095     65248     65131     64960     64937     65071     65212     65154     65658     65305     65113     65143     65256     65000     65090 
dram[10]:     65059     65101     65231     65135     64969     64940     65077     65209     65121     65725     65306     65099     65139     65245     65003     65092 
dram[11]:     65030     65004     65220     65071     64964     64977     65083     65204     65125     65722     65361     65035     65057     65143     64991     65095 
dram[12]:     65026     65026     65078     65083     64968     64982     65083     65228     65135     65666     65362     65083     65038     65155     65003     65095 
dram[13]:     65036     65030     64987     65094     64917     65122     65051     65232     65141     65673     65330     65087     65039     65208     65030     65098 
dram[14]:     65031     65042     64959     65084     64874     65130     65048     65239     65116     65760     65329     65058     65035     65192     65030     65091 
dram[15]:     65035     65011     64962     65088     64869     65155     65050     65244     65190     65771     65470     65012     65036     65304     65108     65022 
dram[16]:     65073     65072     65011     65100     64873     65153     65066     65244     65204     65769     65515     65017     65117     65304     65114     64978 
dram[17]:     65083     65111     65040     64994     64970     65040     65075     65382     65202     65720     65532     65020     65120     65236     65112     64983 
dram[18]:     65083     65108     65067     64976     65018     65040     65076     65395     65215     65713     65517     65047     65117     65237     65115     64982 
dram[19]:     65083     65094     65064     64971     65018     65040     65088     65392     65207     65717     65631     65054     65152     65392     65095     64982 
dram[20]:     65020     65107     65037     65121     65014     65050     65078     65389     65205     65714     65634     65054     65035     65398     65102     65013 
dram[21]:     65029     65115     65030     65213     64935     65037     65039     65249     65204     65754     65604     65087     65032     65402     65102     65018 
dram[22]:     65026     65090     65028     65213     64952     65140     65015     65176     65206     65750     65601     64960     65023     65399     65101     65006 
dram[23]:     65035     64976     65030     65199     64958     65136     65012     65119     65249     65814     65623     64957     65036     65396     65102     64993 
dram[24]:     65025     64973     65026     65255     64962     65180     65046     65116     65301     65823     65677     64951     65004     65428     65034     65074 
dram[25]:     65034     64975     65112     65268     64958     65007     65042     65062     65302     65810     65677     64991     65003     65422     64940     65074 
dram[26]:     65031     65007     65118     65260     64926     65061     65111     65067     65307     65811     65707     64990     65042     65441     64939     65076 
dram[27]:     65005     65010     65157     65254     64921     65059     65112     65066     65277     65770     65671     64930     65003     65728     64928     65088 
dram[28]:     65143     64982     65153     65087     64930     65061     65114     65065     65257     65734     65934     64998     65017     65976     64959     65026 
dram[29]:     65168     64958     65261     64917     64939     64912     65112     65054     65260     65766     65977     64993     65018     66022     65041     65030 
dram[30]:     65160     65001     65261     64914     65029     65059     65136     65088     65263     65766     65980     64999     65018     66021     65052     65030 
dram[31]:     65159     65006     65257     64921     65035     65062     65143     65083     65277     65768     65975     64946     65042     66021     65063     65034 
dram[32]:     65119     64958     65260     64847     65059     65099     65142     65083     65221     65756     65914     64953     65020     66081     65039     65018 
dram[33]:     65113     64965     65205     64905     65059     65097     65143     65030     65226     65750     65915     64994     65011     66081     65003     65023 
dram[34]:     65122     64962     65092     64910     65059     65082     65166     65250     65184     65698     65923     64996     65000     66119     65016     65006 
dram[35]:     65141     64963     65090     64916     65102     64991     65174     65272     65179     65692     65925     64929     65003     66094     65030     65013 
dram[36]:     65141     65002     65059     64900     65102     64963     65172     65309     65309     65689     66082     64943     64994     66069     65010     65014 
dram[37]:     65083     65013     65201     65215     65107     64946     65143     65326     65315     65694     66064     64991     65011     65974     65004     65010 
dram[38]:     65059     65006     65205     65220     65106     64956     65087     65210     65342     65694     66038     64929     65016     65944     65013     65010 
dram[39]:     65111     64993     65202     65220     65106     64961     65018     65197     65339     65620     66035     64958     65016     65972     65043     65017 
dram[40]:     65107     64934     65219     65219     65059     64948     65018     65186     65351     65670     66028     64986     65013     65971     65022     65023 
dram[41]:     65037     64965     65216     65165     65052     64940     65016     65188     65358     65682     66030     64988     64983     65992     64970     65053 
dram[42]:     65026     64971     65256     65058     65048     64916     65013     65189     65386     65604     66033     64993     64998     65993     64982     65079 
dram[43]:     65046     64970     65276     65054     64925     64917     65164     65225     65381     65603     66033     64988     65005     65992     64998     65082 
dram[44]:     65043     64971     65262     65037     64925     64917     65166     65225     65314     65660     66009     65010     64987     66021     65033     65034 
dram[45]:     65048     64933     65249     65031     64924     64917     65147     65225     65308     65662     65974     65007     64985     66142     65039     65031 
dram[46]:     65039     64970     65248     65018     64923     64928     65145     65255     65302     65682     65980     64982     65000     66182     65167     65046 
dram[47]:     65033     64975     65254     65008     64900     64923     65043     65280     65305     65673     65949     64982     64994     66134     65169     65048 
dram[48]:     65083     64981     65224     65013     64909     64922     65042     65285     65307     65726     65955     64971     65008     66086     65166     65079 
dram[49]:     64934     65074     65220     65019     64908     64924     65042     65263     65374     65779     65956     65005     64970     65991     65053     65004 
dram[50]:     64936     65083     65205     65118     64909     64922     65044     65131     65379     65789     65956     64992     65043     65987     65038     65015 
dram[51]:     64946     65086     65205     65118     64881     65037     65070     65131     65386     65794     65999     64982     65058     65977     65051     65018 
dram[52]:     64960     65083     65189     65122     64888     65050     65077     65117     65381     65718     65997     65038     65083     65940     65048     65016 
dram[53]:     64946     65030     65208     65131     64901     65047     65111     65091     65357     65722     66016     65049     64969     65991     65048     65032 
dram[54]:     64978     65026     65269     65006     64908     65060     65110     65090     65362     65719     65920     65040     65007     65991     64985     65026 
dram[55]:     65040     65016     65237     64947     64892     65035     65139     65112     65393     65777     65876     65024     65070     66033     65010     65047 
dram[56]:     65040     65019     65234     64987     65008     65107     65143     65130     65403     65678     65868     64953     65071     66033     65007     65047 
dram[57]:     65039     64912     65248     64982     65011     65150     65144     65120     65397     65661     65859     64970     65052     66026     64999     64978 
dram[58]:     64994     64901     65119     65005     65064     65142     65141     65112     65403     65659     65707     64968     65002     65790     64980     65023 
dram[59]:     64943     65000     65172     65011     65065     64986     65087     65237     65402     65675     65704     64966     65037     65802     65055     65044 
dram[60]:     64989     65023     65177     65009     65070     64998     65050     65249     65348     65665     65753     64959     65039     65795     65100     65037 
dram[61]:     64993     65023     65177     64995     65068     64994     65051     65252     65327     65735     65754     64966     65036     65826     65095     65038 
dram[62]:     65001     64911     65173     65136     65107     64989     65050     65251     65329     65778     65772     64973     65021     65837     65065     65048 
dram[63]:     65053     64910     65096     65189     65104     64914     65051     65203     65332     65725     65774     64960     65021     65836     65071     65033 
dram[64]:     64890     64896     65055     65182     64972     64981     65080     65184     65333     65717     65819     64958     65020     65794     65060     65060 
dram[65]:     64898     64902     65059     65219     64981     64994     65084     65188     65331     65659     65825     64993     65059     65772     65054     65060 
dram[66]:     64886     64882     65059     65163     64971     64989     65080     65185     65420     65749     65819     65001     65023     65736     64999     65047 
dram[67]:     65011     65111     65041     65155     64977     64998     65079     65188     65430     65751     66812     65001     65200     66119     65065     65052 
dram[68]:     65005     65112     65058     65077     65006     64914     65112     65190     65416     65673     66847     65006     65196     66168     65055     65061 
dram[69]:     64977     65107     65058     65054     65079     64849     65165     65161     65403     65669     66844     65010     65207     66158     65061     65066 
dram[70]:     64981     65087     65035     65053     65082     64846     65165     65172     65463     65670     66853     65015     65201     66166     65037     64994 
dram[71]:     64970     64994     65066     65058     65098     64849     65164     65172     65463     65670     66926     65036     65055     66800     65026     65015 
dram[72]:     65012     64994     65074     65055     65054     64955     65059     65165     65469     65672     66929     65042     65059     66800     65052     65023 
dram[73]:     65017     64994     65095     65072     65010     64958     65054     65209     65468     65631     66955     64982     65062     66840     65064     65018 
dram[74]:     65010     64994     65078     65076     65023     64958     65068     65220     65386     65721     66919     64970     65065     66836     65068     65004 
dram[75]:     65155     65014     65082     65029     65066     64958     65073     65232     65377     65725     67136     64972     65059     66882     65078     65038 
dram[76]:     65164     65022     65086     65038     65060     65011     65041     65214     65366     65725     67133     64946     65094     66882     65091     65043 
dram[77]:     65160     65016     65039     65047     64962     65011     65049     65220     65375     65719     67152     64936     65123     66913     65111     65071 
dram[78]:     65162     65014     64988     65035     64938     65011     65059     65220     65452     65734     67153     64984     65112     66907     65079     65055 
dram[79]:     65115     65059     65000     65035     64940     65011     65073     65218     65516     65731     67096     64990     65112     66908     65011     65120 
dram[80]:     65119     65059     65025     65114     64936     64997     65089     65220     65505     65677     67140     64981     65103     66912     65021     65144 
dram[81]:     65118     65061     65023     65119     64969     65019     65060     65135     65523     65696     67144     64978     65107     66902     65059     65147 
dram[82]:     65099     65065     65021     65131     65022     65019     65034     65125     65513     65773     67137     64934     65107     66899     65082     65148 
dram[83]:     65030     65035     65024     65125     65016     64985     65018     65116     65492     65783     67139     64935     65029     66917     65080     65125 
dram[84]:     65027     65094     65034     65154     65022     64917     65007     65115     65498     65783     67161     64930     65047     67059     64999     65125 
dram[85]:     65031     65096     65039     65165     65099     64966     65010     65277     65540     65667     67187     64934     65044     67106     64987     65130 
dram[86]:     65032     65107     65101     65179     65138     64999     65010     65274     65553     65720     67120     64923     65042     67120     64987     65130 
dram[87]:     65030     65107     65105     65184     65137     64995     65010     65270     65547     65721     67234     64953     65035     67084     64988     65086 
[...]
L2_cache_bank[133]: Access = 30855, Miss = 14592, Miss_rate = 0.473, Pending_hits = 485, Reservation_fails = 0
L2_cache_bank[134]: Access = 30882, Miss = 14592, Miss_rate = 0.473, Pending_hits = 481, Reservation_fails = 0
L2_cache_bank[135]: Access = 30864, Miss = 14592, Miss_rate = 0.473, Pending_hits = 488, Reservation_fails = 0
L2_cache_bank[136]: Access = 30861, Miss = 14592, Miss_rate = 0.473, Pending_hits = 485, Reservation_fails = 0
L2_cache_bank[137]: Access = 30855, Miss = 14592, Miss_rate = 0.473, Pending_hits = 484, Reservation_fails = 0
L2_cache_bank[138]: Access = 30858, Miss = 14592, Miss_rate = 0.473, Pending_hits = 469, Reservation_fails = 0
L2_cache_bank[139]: Access = 30874, Miss = 14592, Miss_rate = 0.473, Pending_hits = 482, Reservation_fails = 0
L2_cache_bank[140]: Access = 30834, Miss = 14592, Miss_rate = 0.473, Pending_hits = 481, Reservation_fails = 0
L2_cache_bank[141]: Access = 30864, Miss = 14592, Miss_rate = 0.473, Pending_hits = 496, Reservation_fails = 0
L2_cache_bank[142]: Access = 30839, Miss = 14592, Miss_rate = 0.473, Pending_hits = 490, Reservation_fails = 0
L2_cache_bank[143]: Access = 30846, Miss = 14592, Miss_rate = 0.473, Pending_hits = 487, Reservation_fails = 0
L2_cache_bank[144]: Access = 30842, Miss = 14592, Miss_rate = 0.473, Pending_hits = 478, Reservation_fails = 0
L2_cache_bank[145]: Access = 30861, Miss = 14592, Miss_rate = 0.473, Pending_hits = 479, Reservation_fails = 0
L2_cache_bank[146]: Access = 30868, Miss = 14592, Miss_rate = 0.473, Pending_hits = 470, Reservation_fails = 0
L2_cache_bank[147]: Access = 30848, Miss = 14592, Miss_rate = 0.473, Pending_hits = 501, Reservation_fails = 0
L2_cache_bank[148]: Access = 30862, Miss = 14592, Miss_rate = 0.473, Pending_hits = 504, Reservation_fails = 0
L2_cache_bank[149]: Access = 30865, Miss = 14592, Miss_rate = 0.473, Pending_hits = 487, Reservation_fails = 0
L2_cache_bank[150]: Access = 30845, Miss = 14592, Miss_rate = 0.473, Pending_hits = 495, Reservation_fails = 0
L2_cache_bank[151]: Access = 30854, Miss = 14592, Miss_rate = 0.473, Pending_hits = 486, Reservation_fails = 0
L2_cache_bank[152]: Access = 30847, Miss = 14592, Miss_rate = 0.473, Pending_hits = 502, Reservation_fails = 0
L2_cache_bank[153]: Access = 30877, Miss = 14592, Miss_rate = 0.473, Pending_hits = 499, Reservation_fails = 0
L2_cache_bank[154]: Access = 30864, Miss = 14592, Miss_rate = 0.473, Pending_hits = 523, Reservation_fails = 0
L2_cache_bank[155]: Access = 30872, Miss = 14592, Miss_rate = 0.473, Pending_hits = 498, Reservation_fails = 0
L2_cache_bank[156]: Access = 30869, Miss = 14592, Miss_rate = 0.473, Pending_hits = 493, Reservation_fails = 0
L2_cache_bank[157]: Access = 30861, Miss = 14592, Miss_rate = 0.473, Pending_hits = 474, Reservation_fails = 0
L2_cache_bank[158]: Access = 30853, Miss = 14592, Miss_rate = 0.473, Pending_hits = 491, Reservation_fails = 0
L2_cache_bank[159]: Access = 30836, Miss = 14592, Miss_rate = 0.473, Pending_hits = 499, Reservation_fails = 0
L2_cache_bank[160]: Access = 30857, Miss = 14592, Miss_rate = 0.473, Pending_hits = 502, Reservation_fails = 0
L2_cache_bank[161]: Access = 30875, Miss = 14592, Miss_rate = 0.473, Pending_hits = 490, Reservation_fails = 0
L2_cache_bank[162]: Access = 30873, Miss = 14592, Miss_rate = 0.473, Pending_hits = 501, Reservation_fails = 0
L2_cache_bank[163]: Access = 30892, Miss = 14592, Miss_rate = 0.472, Pending_hits = 502, Reservation_fails = 0
L2_cache_bank[164]: Access = 30875, Miss = 14592, Miss_rate = 0.473, Pending_hits = 493, Reservation_fails = 0
L2_cache_bank[165]: Access = 30871, Miss = 14592, Miss_rate = 0.473, Pending_hits = 496, Reservation_fails = 0
L2_cache_bank[166]: Access = 30863, Miss = 14592, Miss_rate = 0.473, Pending_hits = 482, Reservation_fails = 0
L2_cache_bank[167]: Access = 30863, Miss = 14592, Miss_rate = 0.473, Pending_hits = 500, Reservation_fails = 0
L2_cache_bank[168]: Access = 30873, Miss = 14592, Miss_rate = 0.473, Pending_hits = 500, Reservation_fails = 0
L2_cache_bank[169]: Access = 30870, Miss = 14592, Miss_rate = 0.473, Pending_hits = 492, Reservation_fails = 0
L2_cache_bank[170]: Access = 30875, Miss = 14592, Miss_rate = 0.473, Pending_hits = 494, Reservation_fails = 0
L2_cache_bank[171]: Access = 30853, Miss = 14592, Miss_rate = 0.473, Pending_hits = 511, Reservation_fails = 0
L2_cache_bank[172]: Access = 30861, Miss = 14592, Miss_rate = 0.473, Pending_hits = 484, Reservation_fails = 0
L2_cache_bank[173]: Access = 30885, Miss = 14592, Miss_rate = 0.472, Pending_hits = 517, Reservation_fails = 0
L2_cache_bank[174]: Access = 30876, Miss = 14592, Miss_rate = 0.473, Pending_hits = 495, Reservation_fails = 0
L2_cache_bank[175]: Access = 30883, Miss = 14592, Miss_rate = 0.472, Pending_hits = 490, Reservation_fails = 0
L2_cache_bank[176]: Access = 30867, Miss = 14592, Miss_rate = 0.473, Pending_hits = 486, Reservation_fails = 0
L2_cache_bank[177]: Access = 30889, Miss = 14592, Miss_rate = 0.472, Pending_hits = 496, Reservation_fails = 0
L2_cache_bank[178]: Access = 30854, Miss = 14592, Miss_rate = 0.473, Pending_hits = 496, Reservation_fails = 0
L2_cache_bank[179]: Access = 30893, Miss = 14592, Miss_rate = 0.472, Pending_hits = 490, Reservation_fails = 0
L2_cache_bank[180]: Access = 30846, Miss = 14592, Miss_rate = 0.473, Pending_hits = 498, Reservation_fails = 0
L2_cache_bank[181]: Access = 30878, Miss = 14592, Miss_rate = 0.473, Pending_hits = 510, Reservation_fails = 0
L2_cache_bank[182]: Access = 30865, Miss = 14592, Miss_rate = 0.473, Pending_hits = 513, Reservation_fails = 0
L2_cache_bank[183]: Access = 30864, Miss = 14592, Miss_rate = 0.473, Pending_hits = 506, Reservation_fails = 0
L2_cache_bank[184]: Access = 30872, Miss = 14592, Miss_rate = 0.473, Pending_hits = 510, Reservation_fails = 0
L2_cache_bank[185]: Access = 30861, Miss = 14592, Miss_rate = 0.473, Pending_hits = 471, Reservation_fails = 0
L2_cache_bank[186]: Access = 30865, Miss = 14592, Miss_rate = 0.473, Pending_hits = 501, Reservation_fails = 0
L2_cache_bank[187]: Access = 30871, Miss = 14592, Miss_rate = 0.473, Pending_hits = 499, Reservation_fails = 0
L2_cache_bank[188]: Access = 30859, Miss = 14592, Miss_rate = 0.473, Pending_hits = 495, Reservation_fails = 0
L2_cache_bank[189]: Access = 30845, Miss = 14592, Miss_rate = 0.473, Pending_hits = 489, Reservation_fails = 0
L2_cache_bank[190]: Access = 30884, Miss = 14592, Miss_rate = 0.472, Pending_hits = 493, Reservation_fails = 0
L2_cache_bank[191]: Access = 30869, Miss = 14592, Miss_rate = 0.473, Pending_hits = 508, Reservation_fails = 0
L2_cache_bank[192]: Access = 30890, Miss = 14592, Miss_rate = 0.472, Pending_hits = 506, Reservation_fails = 0
L2_cache_bank[193]: Access = 30869, Miss = 14592, Miss_rate = 0.473, Pending_hits = 481, Reservation_fails = 0
L2_cache_bank[194]: Access = 30840, Miss = 14592, Miss_rate = 0.473, Pending_hits = 499, Reservation_fails = 0
L2_cache_bank[195]: Access = 30866, Miss = 14592, Miss_rate = 0.473, Pending_hits = 499, Reservation_fails = 0
L2_cache_bank[196]: Access = 30862, Miss = 14592, Miss_rate = 0.473, Pending_hits = 504, Reservation_fails = 0
L2_cache_bank[197]: Access = 30861, Miss = 14592, Miss_rate = 0.473, Pending_hits = 491, Reservation_fails = 0
L2_cache_bank[198]: Access = 30878, Miss = 14592, Miss_rate = 0.473, Pending_hits = 488, Reservation_fails = 0
L2_cache_bank[199]: Access = 30859, Miss = 14592, Miss_rate = 0.473, Pending_hits = 496, Reservation_fails = 0
L2_cache_bank[200]: Access = 30869, Miss = 14592, Miss_rate = 0.473, Pending_hits = 499, Reservation_fails = 0
L2_cache_bank[201]: Access = 30859, Miss = 14592, Miss_rate = 0.473, Pending_hits = 498, Reservation_fails = 0
L2_cache_bank[202]: Access = 30854, Miss = 14592, Miss_rate = 0.473, Pending_hits = 490, Reservation_fails = 0
L2_cache_bank[203]: Access = 30845, Miss = 14592, Miss_rate = 0.473, Pending_hits = 476, Reservation_fails = 0
L2_cache_bank[204]: Access = 30857, Miss = 14592, Miss_rate = 0.473, Pending_hits = 498, Reservation_fails = 0
L2_cache_bank[205]: Access = 30873, Miss = 14592, Miss_rate = 0.473, Pending_hits = 495, Reservation_fails = 0
L2_cache_bank[206]: Access = 30876, Miss = 14592, Miss_rate = 0.473, Pending_hits = 509, Reservation_fails = 0
L2_cache_bank[207]: Access = 30852, Miss = 14592, Miss_rate = 0.473, Pending_hits = 503, Reservation_fails = 0
L2_cache_bank[208]: Access = 30862, Miss = 14592, Miss_rate = 0.473, Pending_hits = 492, Reservation_fails = 0
L2_cache_bank[209]: Access = 30869, Miss = 14592, Miss_rate = 0.473, Pending_hits = 498, Reservation_fails = 0
L2_cache_bank[210]: Access = 30861, Miss = 14592, Miss_rate = 0.473, Pending_hits = 481, Reservation_fails = 0
L2_cache_bank[211]: Access = 30881, Miss = 14592, Miss_rate = 0.473, Pending_hits = 500, Reservation_fails = 0
L2_cache_bank[212]: Access = 30858, Miss = 14592, Miss_rate = 0.473, Pending_hits = 492, Reservation_fails = 0
L2_cache_bank[213]: Access = 30856, Miss = 14592, Miss_rate = 0.473, Pending_hits = 496, Reservation_fails = 0
L2_cache_bank[214]: Access = 30846, Miss = 14592, Miss_rate = 0.473, Pending_hits = 504, Reservation_fails = 0
L2_cache_bank[215]: Access = 30895, Miss = 14592, Miss_rate = 0.472, Pending_hits = 493, Reservation_fails = 0
L2_cache_bank[216]: Access = 30864, Miss = 14592, Miss_rate = 0.473, Pending_hits = 497, Reservation_fails = 0
L2_cache_bank[217]: Access = 30860, Miss = 14592, Miss_rate = 0.473, Pending_hits = 495, Reservation_fails = 0
L2_cache_bank[218]: Access = 30852, Miss = 14592, Miss_rate = 0.473, Pending_hits = 492, Reservation_fails = 0
L2_cache_bank[219]: Access = 30891, Miss = 14592, Miss_rate = 0.472, Pending_hits = 490, Reservation_fails = 0
L2_cache_bank[220]: Access = 30835, Miss = 14592, Miss_rate = 0.473, Pending_hits = 501, Reservation_fails = 0
L2_cache_bank[221]: Access = 30883, Miss = 14592, Miss_rate = 0.472, Pending_hits = 502, Reservation_fails = 0
L2_cache_bank[222]: Access = 30854, Miss = 14592, Miss_rate = 0.473, Pending_hits = 471, Reservation_fails = 0
L2_cache_bank[223]: Access = 30895, Miss = 14592, Miss_rate = 0.472, Pending_hits = 494, Reservation_fails = 0
L2_cache_bank[224]: Access = 30880, Miss = 14592, Miss_rate = 0.473, Pending_hits = 501, Reservation_fails = 0
L2_cache_bank[225]: Access = 30873, Miss = 14592, Miss_rate = 0.473, Pending_hits = 487, Reservation_fails = 0
L2_cache_bank[226]: Access = 30853, Miss = 14592, Miss_rate = 0.473, Pending_hits = 478, Reservation_fails = 0
L2_cache_bank[227]: Access = 30859, Miss = 14592, Miss_rate = 0.473, Pending_hits = 496, Reservation_fails = 0
L2_cache_bank[228]: Access = 30855, Miss = 14592, Miss_rate = 0.473, Pending_hits = 517, Reservation_fails = 0
L2_cache_bank[229]: Access = 30870, Miss = 14592, Miss_rate = 0.473, Pending_hits = 495, Reservation_fails = 0
L2_cache_bank[230]: Access = 30882, Miss = 14592, Miss_rate = 0.473, Pending_hits = 479, Reservation_fails = 0
L2_cache_bank[231]: Access = 30857, Miss = 14592, Miss_rate = 0.473, Pending_hits = 499, Reservation_fails = 0
L2_cache_bank[232]: Access = 30878, Miss = 14592, Miss_rate = 0.473, Pending_hits = 505, Reservation_fails = 0
L2_cache_bank[233]: Access = 30874, Miss = 14592, Miss_rate = 0.473, Pending_hits = 474, Reservation_fails = 0
L2_cache_bank[234]: Access = 30857, Miss = 14592, Miss_rate = 0.473, Pending_hits = 491, Reservation_fails = 0
L2_cache_bank[235]: Access = 30867, Miss = 14592, Miss_rate = 0.473, Pending_hits = 481, Reservation_fails = 0
L2_cache_bank[236]: Access = 30874, Miss = 14592, Miss_rate = 0.473, Pending_hits = 517, Reservation_fails = 0
L2_cache_bank[237]: Access = 30857, Miss = 14592, Miss_rate = 0.473, Pending_hits = 490, Reservation_fails = 0
L2_cache_bank[238]: Access = 30867, Miss = 14592, Miss_rate = 0.473, Pending_hits = 503, Reservation_fails = 0
L2_cache_bank[239]: Access = 30843, Miss = 14592, Miss_rate = 0.473, Pending_hits = 496, Reservation_fails = 0
L2_cache_bank[240]: Access = 30872, Miss = 14592, Miss_rate = 0.473, Pending_hits = 486, Reservation_fails = 0
L2_cache_bank[241]: Access = 30854, Miss = 14592, Miss_rate = 0.473, Pending_hits = 473, Reservation_fails = 0
L2_cache_bank[242]: Access = 30860, Miss = 14592, Miss_rate = 0.473, Pending_hits = 492, Reservation_fails = 0
L2_cache_bank[243]: Access = 30880, Miss = 14592, Miss_rate = 0.473, Pending_hits = 470, Reservation_fails = 0
L2_cache_bank[244]: Access = 30884, Miss = 14592, Miss_rate = 0.472, Pending_hits = 468, Reservation_fails = 0
L2_cache_bank[245]: Access = 30857, Miss = 14592, Miss_rate = 0.473, Pending_hits = 475, Reservation_fails = 0
L2_cache_bank[246]: Access = 30855, Miss = 14592, Miss_rate = 0.473, Pending_hits = 461, Reservation_fails = 0
L2_cache_bank[247]: Access = 30855, Miss = 14592, Miss_rate = 0.473, Pending_hits = 463, Reservation_fails = 0
L2_cache_bank[248]: Access = 30827, Miss = 14592, Miss_rate = 0.473, Pending_hits = 463, Reservation_fails = 0
L2_cache_bank[249]: Access = 30873, Miss = 14592, Miss_rate = 0.473, Pending_hits = 506, Reservation_fails = 0
L2_cache_bank[250]: Access = 30851, Miss = 14592, Miss_rate = 0.473, Pending_hits = 505, Reservation_fails = 0
L2_cache_bank[251]: Access = 30868, Miss = 14592, Miss_rate = 0.473, Pending_hits = 475, Reservation_fails = 0
L2_cache_bank[252]: Access = 30842, Miss = 14592, Miss_rate = 0.473, Pending_hits = 473, Reservation_fails = 0
L2_cache_bank[253]: Access = 30856, Miss = 14592, Miss_rate = 0.473, Pending_hits = 467, Reservation_fails = 0
L2_cache_bank[254]: Access = 30838, Miss = 14592, Miss_rate = 0.473, Pending_hits = 482, Reservation_fails = 0
L2_cache_bank[255]: Access = 30861, Miss = 14592, Miss_rate = 0.473, Pending_hits = 495, Reservation_fails = 0
L2_total_cache_accesses = 7902590
L2_total_cache_misses = 3735606
L2_total_cache_miss_rate = 0.4727
L2_total_cache_pending_hits = 126221
L2_total_cache_reservation_fails = 1478
L2_total_cache_breakdown:
	L2_cache_stats_breakdown[GLOBAL_ACC_R][HIT] = 107421
	L2_cache_stats_breakdown[GLOBAL_ACC_R][HIT_RESERVED] = 126095
	L2_cache_stats_breakdown[GLOBAL_ACC_R][MISS] = 868358
	L2_cache_stats_breakdown[GLOBAL_ACC_R][RESERVATION_FAIL] = 151
	L2_cache_stats_breakdown[GLOBAL_ACC_R][SECTOR_MISS] = 2605062
	L2_cache_stats_breakdown[LOCAL_ACC_R][HIT] = 0
	L2_cache_stats_breakdown[LOCAL_ACC_R][HIT_RESERVED] = 0
	L2_cache_stats_breakdown[LOCAL_ACC_R][MISS] = 0
	L2_cache_stats_breakdown[LOCAL_ACC_R][RESERVATION_FAIL] = 0
	L2_cache_stats_breakdown[LOCAL_ACC_R][SECTOR_MISS] = 0
	L2_cache_stats_breakdown[CONST_ACC_R][HIT] = 56
	L2_cache_stats_breakdown[CONST_ACC_R][HIT_RESERVED] = 6
	L2_cache_stats_breakdown[CONST_ACC_R][MISS] = 1
	L2_cache_stats_breakdown[CONST_ACC_R][RESERVATION_FAIL] = 162
	L2_cache_stats_breakdown[CONST_ACC_R][SECTOR_MISS] = 1
	L2_cache_stats_breakdown[TEXTURE_ACC_R][HIT] = 0
	L2_cache_stats_breakdown[TEXTURE_ACC_R][HIT_RESERVED] = 0
	L2_cache_stats_breakdown[TEXTURE_ACC_R][MISS] = 0
	L2_cache_stats_breakdown[TEXTURE_ACC_R][RESERVATION_FAIL] = 0
	L2_cache_stats_breakdown[TEXTURE_ACC_R][SECTOR_MISS] = 0
	L2_cache_stats_breakdown[GLOBAL_ACC_W][HIT] = 3932166
	L2_cache_stats_breakdown[GLOBAL_ACC_W][HIT_RESERVED] = 0
	L2_cache_stats_breakdown[GLOBAL_ACC_W][MISS] = 16384
	L2_cache_stats_breakdown[GLOBAL_ACC_W][RESERVATION_FAIL] = 0
	L2_cache_stats_breakdown[GLOBAL_ACC_W][SECTOR_MISS] = 245760
	L2_cache_stats_breakdown[LOCAL_ACC_W][HIT] = 0
	L2_cache_stats_breakdown[LOCAL_ACC_W][HIT_RESERVED] = 0
	L2_cache_stats_breakdown[LOCAL_ACC_W][MISS] = 0
	L2_cache_stats_breakdown[LOCAL_ACC_W][RESERVATION_FAIL] = 0
	L2_cache_stats_breakdown[LOCAL_ACC_W][SECTOR_MISS] = 0
	L2_cache_stats_breakdown[L1_WRBK_ACC][HIT] = 0
	L2_cache_stats_breakdown[L1_WRBK_ACC][HIT_RESERVED] = 0
	L2_cache_stats_breakdown[L1_WRBK_ACC][MISS] = 0
	L2_cache_stats_breakdown[L1_WRBK_ACC][RESERVATION_FAIL] = 0
	L2_cache_stats_breakdown[L1_WRBK_ACC][SECTOR_MISS] = 0
	L2_cache_stats_breakdown[L2_WRBK_ACC][HIT] = 0
	L2_cache_stats_breakdown[L2_WRBK_ACC][HIT_RESERVED] = 0
	L2_cache_stats_breakdown[L2_WRBK_ACC][MISS] = 0
	L2_cache_stats_breakdown[L2_WRBK_ACC][RESERVATION_FAIL] = 0
	L2_cache_stats_breakdown[L2_WRBK_ACC][SECTOR_MISS] = 0
	L2_cache_stats_breakdown[INST_ACC_R][HIT] = 1120
	L2_cache_stats_breakdown[INST_ACC_R][HIT_RESERVED] = 120
	L2_cache_stats_breakdown[INST_ACC_R][MISS] = 10
	L2_cache_stats_breakdown[INST_ACC_R][RESERVATION_FAIL] = 1165
	L2_cache_stats_breakdown[INST_ACC_R][SECTOR_MISS] = 30
	L2_cache_stats_breakdown[L1_WR_ALLOC_R][HIT] = 0
	L2_cache_stats_breakdown[L1_WR_ALLOC_R][HIT_RESERVED] = 0
	L2_cache_stats_breakdown[L1_WR_ALLOC_R][MISS] = 0
	L2_cache_stats_breakdown[L1_WR_ALLOC_R][RESERVATION_FAIL] = 0
	L2_cache_stats_breakdown[L1_WR_ALLOC_R][SECTOR_MISS] = 0
	L2_cache_stats_breakdown[L2_WR_ALLOC_R][HIT] = 0
	L2_cache_stats_breakdown[L2_WR_ALLOC_R][HIT_RESERVED] = 0
	L2_cache_stats_breakdown[L2_WR_ALLOC_R][MISS] = 0
	L2_cache_stats_breakdown[L2_WR_ALLOC_R][RESERVATION_FAIL] = 0
	L2_cache_stats_breakdown[L2_WR_ALLOC_R][SECTOR_MISS] = 0
	L2_cache_stats_breakdown[GLOBAL_ACC_R][TOTAL_ACCESS] = 3706936
	L2_cache_stats_breakdown[CONST_ACC_R][TOTAL_ACCESS] = 64
	L2_cache_stats_breakdown[GLOBAL_ACC_W][TOTAL_ACCESS] = 4194310
	L2_cache_stats_breakdown[INST_ACC_R][TOTAL_ACCESS] = 1280
L2_total_cache_reservation_fail_breakdown:
	L2_cache_stats_fail_breakdown[GLOBAL_ACC_R][MSHR_MERGE_ENRTY_FAIL] = 151
	L2_cache_stats_fail_breakdown[CONST_ACC_R][MSHR_MERGE_ENRTY_FAIL] = 162
	L2_cache_stats_fail_breakdown[INST_ACC_R][MSHR_MERGE_ENRTY_FAIL] = 1165
L2_cache_data_port_util = 0.018
L2_cache_fill_port_util = 0.015

icnt_total_pkts_mem_to_simt=7902590
icnt_total_pkts_simt_to_mem=7901598
LD_mem_lat_dist  0 0 0 0 0 0 0 0 0 0 0 0 0 0 0 0 0 0 0 0 0 0 0 0 0 0 0
ST_mem_lat_dist  0 0 0 0 0 0 0 0 0 0 0 0 0 0 0 0 0 0 0 0 0 0 0 0 0 0 0
----------------------------Interconnect-DETAILS--------------------------------
Class 0:
Packet latency average = 89.2462
	minimum = 5
	maximum = 892
Network latency average = 56.0087
	minimum = 5
	maximum = 892
Slowest packet = 5767144
Flit latency average = 56.0087
	minimum = 5
	maximum = 892
Slowest flit = 5767144
Fragmentation average = 0
	minimum = 0
	maximum = 0
Injected packet rate average = 0.108029
	minimum = 0.0572931 (at node 138)
	maximum = 0.926739 (at node 15)
Accepted packet rate average = 0.108029
	minimum = 0.0572931 (at node 138)
	maximum = 0.926809 (at node 15)
Injected flit rate average = 0.108029
	minimum = 0.0572931 (at node 138)
	maximum = 0.926739 (at node 15)
Accepted flit rate average= 0.108029
	minimum = 0.0572931 (at node 138)
	maximum = 0.926809 (at node 15)
Injected packet length average = 1
Accepted packet length average = 1
Total in-flight flits = 0 (0 measured)
====== Overall Traffic Statistics ======
====== Traffic class 0 ======
Packet latency average = 53.028 (2 samples)
	minimum = 5 (2 samples)
	maximum = 614.5 (2 samples)
Network latency average = 31.8868 (2 samples)
	minimum = 5 (2 samples)
	maximum = 614.5 (2 samples)
Flit latency average = 31.8868 (2 samples)
	minimum = 5 (2 samples)
	maximum = 614.5 (2 samples)
Fragmentation average = 0 (2 samples)
	minimum = 0 (2 samples)
	maximum = 0 (2 samples)
Injected packet rate average = 0.0726262 (2 samples)
	minimum = 0.0385197 (2 samples)
	maximum = 0.621755 (2 samples)
Accepted packet rate average = 0.0726262 (2 samples)
	minimum = 0.0385197 (2 samples)
	maximum = 0.621824 (2 samples)
Injected flit rate average = 0.0726262 (2 samples)
	minimum = 0.0385197 (2 samples)
	maximum = 0.621755 (2 samples)
Accepted flit rate average = 0.0726262 (2 samples)
	minimum = 0.0385197 (2 samples)
	maximum = 0.621824 (2 samples)
Injected packet size average = 1 (2 samples)
Accepted packet size average = 1 (2 samples)
Hops average = 1 (2 samples)
----------------------------END-of-Interconnect-DETAILS-------------------------


gpgpu_simulation_time = 0 days, 2 hrs, 28 min, 33 sec (8913 sec)
gpgpu_simulation_rate = 144998 (inst/sec)
gpgpu_simulation_rate = 101 (cycle/sec)
Training done
GPGPU-Sim: *** exit detected ***
