const char *g_gpgpusim_version_string = "GPGPU-Sim Simulator Version 4.2.0 ";
