/********************** GPGPU-Sim Verification File **********************/
This file ensures that the GPGPU-Sim version of McPAT is included.
/*************************************************************************/
