

        *** GPGPU-Sim Simulator Version 4.0.0  [build gpgpu-sim_git-commit-_modified_] ***


GPGPU-Sim PTX: simulation mode 0 (can change with PTX_SIM_MODE_FUNC environment variable:
               1=functional simulation only, 0=detailed performance simulator)
GPGPU-Sim PTX: overriding embedded ptx with ptx file (PTX_SIM_USE_PTX_FILE is set)
GPGPU-Sim: Configuration options:

-save_embedded_ptx                      0 # saves ptx files embedded in binary as <n>.ptx
-keep                                   0 # keep intermediate files created by GPGPU-Sim when interfacing with external programs
-gpgpu_ptx_save_converted_ptxplus                    0 # Saved converted ptxplus to a file
-gpgpu_occupancy_sm_number                   70 # The SM number to pass to ptxas when getting register usage for computing GPU occupancy. This parameter is required in the config.
-ptx_opcode_latency_int         4,13,4,5,145 # Opcode latencies for integers <ADD,MAX,MUL,MAD,DIV>Default 1,1,19,25,145
-ptx_opcode_latency_fp          4,13,4,5,39 # Opcode latencies for single precision floating points <ADD,MAX,MUL,MAD,DIV>Default 1,1,1,1,30
-ptx_opcode_latency_dp         8,19,8,8,330 # Opcode latencies for double precision floating points <ADD,MAX,MUL,MAD,DIV>Default 8,8,8,8,335
-ptx_opcode_latency_sfu                  100 # Opcode latencies for SFU instructionsDefault 8
-ptx_opcode_latency_tesnor                   64 # Opcode latencies for Tensor instructionsDefault 64
-ptx_opcode_initiation_int            2,2,2,2,8 # Opcode initiation intervals for integers <ADD,MAX,MUL,MAD,DIV>Default 1,1,4,4,32
-ptx_opcode_initiation_fp            2,2,2,2,4 # Opcode initiation intervals for single precision floating points <ADD,MAX,MUL,MAD,DIV>Default 1,1,1,1,5
-ptx_opcode_initiation_dp          4,4,4,4,130 # Opcode initiation intervals for double precision floating points <ADD,MAX,MUL,MAD,DIV>Default 8,8,8,8,130
-ptx_opcode_initiation_sfu                    8 # Opcode initiation intervals for sfu instructionsDefault 8
-ptx_opcode_initiation_tensor                   64 # Opcode initiation intervals for tensor instructionsDefault 64
-cdp_latency         7200,8000,100,12000,1600 # CDP API latency <cudaStreamCreateWithFlags, cudaGetParameterBufferV2_init_perWarp, cudaGetParameterBufferV2_perKernel, cudaLaunchDeviceV2_init_perWarp, cudaLaunchDevicV2_perKernel>Default 7200,8000,100,12000,1600
-network_mode                           1 # Interconnection network mode
-inter_config_file   config_volta_islip.icnt # Interconnection network config file
-inct_in_buffer_limit                   64 # in_buffer_limit
-inct_out_buffer_limit                   64 # out_buffer_limit
-inct_subnets                           2 # subnets
-gpgpu_ptx_use_cuobjdump                    1 # Use cuobjdump to extract ptx and sass from binaries
-gpgpu_experimental_lib_support                    0 # Try to extract code from cuda libraries [Broken because of unknown cudaGetExportTable]
-checkpoint_option                      0 #  checkpointing flag (0 = no checkpoint)
-checkpoint_kernel                      1 #  checkpointing during execution of which kernel (1- 1st kernel)
-checkpoint_CTA                         0 #  checkpointing after # of CTA (< less than total CTA)
-resume_option                          0 #  resume flag (0 = no resume)
-resume_kernel                          0 #  Resume from which kernel (1= 1st kernel)
-resume_CTA                             0 #  resume from which CTA 
-checkpoint_CTA_t                       0 #  resume from which CTA 
-checkpoint_insn_Y                      0 #  resume from which CTA 
-gpgpu_ptx_convert_to_ptxplus                    0 # Convert SASS (native ISA) to ptxplus and run ptxplus
-gpgpu_ptx_force_max_capability                   70 # Force maximum compute capability
-gpgpu_ptx_inst_debug_to_file                    0 # Dump executed instructions' debug information to file
-gpgpu_ptx_inst_debug_file       inst_debug.txt # Executed instructions' debug output file
-gpgpu_ptx_inst_debug_thread_uid                    1 # Thread UID for executed instructions' debug output
-gpgpu_simd_model                       1 # 1 = post-dominator
-gpgpu_shader_core_pipeline              2048:32 # shader core pipeline config, i.e., {<nthread>:<warpsize>}
-gpgpu_tex_cache:l1  N:16:128:24,L:R:m:N:L,T:128:4,128:2 # per-shader L1 texture cache  (READ-ONLY) config  {<nsets>:<bsize>:<assoc>,<rep>:<wr>:<alloc>:<wr_alloc>,<mshr>:<N>:<merge>,<mq>:<rf>}
-gpgpu_const_cache:l1 N:128:64:8,L:R:f:N:L,S:2:64,4 # per-shader L1 constant memory cache  (READ-ONLY) config  {<nsets>:<bsize>:<assoc>,<rep>:<wr>:<alloc>:<wr_alloc>,<mshr>:<N>:<merge>,<mq>} 
-gpgpu_cache:il1     N:64:128:16,L:R:f:N:L,S:2:48,4 # shader L1 instruction cache config  {<nsets>:<bsize>:<assoc>,<rep>:<wr>:<alloc>:<wr_alloc>,<mshr>:<N>:<merge>,<mq>} 
-gpgpu_cache:dl1     S:4:128:64,L:L:s:N:L,A:256:8,16:0,32 # per-shader L1 data cache config  {<nsets>:<bsize>:<assoc>,<rep>:<wr>:<alloc>:<wr_alloc>,<mshr>:<N>:<merge>,<mq> | none}
-l1_latency                            28 # L1 Hit Latency
-smem_latency                          19 # smem Latency
-gpgpu_cache:dl1PrefL1                 none # per-shader L1 data cache config  {<nsets>:<bsize>:<assoc>,<rep>:<wr>:<alloc>:<wr_alloc>,<mshr>:<N>:<merge>,<mq> | none}
-gpgpu_cache:dl1PrefShared                 none # per-shader L1 data cache config  {<nsets>:<bsize>:<assoc>,<rep>:<wr>:<alloc>:<wr_alloc>,<mshr>:<N>:<merge>,<mq> | none}
-gmem_skip_L1D                          0 # global memory access skip L1D cache (implements -Xptxas -dlcm=cg, default=no skip)
-gpgpu_perfect_mem                      0 # enable perfect memory mode (no cache miss)
-n_regfile_gating_group                    4 # group of lanes that should be read/written together)
-gpgpu_clock_gated_reg_file                    0 # enable clock gated reg file for power calculations
-gpgpu_clock_gated_lanes                    0 # enable clock gated lanes for power calculations
-gpgpu_shader_registers                65536 # Number of registers per shader core. Limits number of concurrent CTAs. (default 8192)
-gpgpu_registers_per_block                 8192 # Maximum number of registers per CTA. (default 8192)
-gpgpu_ignore_resources_limitation                    0 # gpgpu_ignore_resources_limitation (default 0)
-gpgpu_shader_cta                      32 # Maximum number of concurrent CTAs in shader (default 8)
-gpgpu_num_cta_barriers                   16 # Maximum number of named barriers per CTA (default 16)
-gpgpu_n_clusters                      40 # number of processing clusters
-gpgpu_n_cores_per_cluster                    2 # number of simd cores per cluster
-gpgpu_n_cluster_ejection_buffer_size                   32 # number of packets in ejection buffer
-gpgpu_n_ldst_response_buffer_size                    2 # number of response packets in ld/st unit ejection buffer
-gpgpu_shmem_per_block                49152 # Size of shared memory per thread block or CTA (default 48kB)
-gpgpu_shmem_size                   16384 # Size of shared memory per shader core (default 16kB)
-adaptive_volta_cache_config                    1 # adaptive_volta_cache_config
-gpgpu_shmem_size                   98304 # Size of shared memory per shader core (default 16kB)
-gpgpu_shmem_size_PrefL1                16384 # Size of shared memory per shader core (default 16kB)
-gpgpu_shmem_size_PrefShared                16384 # Size of shared memory per shader core (default 16kB)
-gpgpu_shmem_num_banks                   32 # Number of banks in the shared memory in each shader core (default 16)
-gpgpu_shmem_limited_broadcast                    0 # Limit shared memory to do one broadcast per cycle (default on)
-gpgpu_shmem_warp_parts                    1 # Number of portions a warp is divided into for shared memory bank conflict check 
-mem_unit_ports                         4 # The number of memory transactions allowed per core cycle
-gpgpu_shmem_warp_parts                    1 # Number of portions a warp is divided into for shared memory bank conflict check 
-gpgpu_warpdistro_shader                   -1 # Specify which shader core to collect the warp size distribution from
-gpgpu_warp_issue_shader                    0 # Specify which shader core to collect the warp issue distribution from
-gpgpu_local_mem_map                    1 # Mapping from local memory space address to simulated GPU physical address space (default = enabled)
-gpgpu_num_reg_banks                    8 # Number of register banks (default = 8)
-gpgpu_reg_bank_use_warp_id                    0 # Use warp ID in mapping registers to banks (default = off)
-sub_core_model                         1 # Sub Core Volta/Pascal model (default = off)
-enable_specialized_operand_collector                    0 # enable_specialized_operand_collector
-gpgpu_operand_collector_num_units_sp                    4 # number of collector units (default = 4)
-gpgpu_operand_collector_num_units_dp                    0 # number of collector units (default = 0)
-gpgpu_operand_collector_num_units_sfu                    4 # number of collector units (default = 4)
-gpgpu_operand_collector_num_units_int                    0 # number of collector units (default = 0)
-gpgpu_operand_collector_num_units_tensor_core                    4 # number of collector units (default = 4)
-gpgpu_operand_collector_num_units_mem                    2 # number of collector units (default = 2)
-gpgpu_operand_collector_num_units_gen                    8 # number of collector units (default = 0)
-gpgpu_operand_collector_num_in_ports_sp                    1 # number of collector unit in ports (default = 1)
-gpgpu_operand_collector_num_in_ports_dp                    0 # number of collector unit in ports (default = 0)
-gpgpu_operand_collector_num_in_ports_sfu                    1 # number of collector unit in ports (default = 1)
-gpgpu_operand_collector_num_in_ports_int                    0 # number of collector unit in ports (default = 0)
-gpgpu_operand_collector_num_in_ports_tensor_core                    1 # number of collector unit in ports (default = 1)
-gpgpu_operand_collector_num_in_ports_mem                    1 # number of collector unit in ports (default = 1)
-gpgpu_operand_collector_num_in_ports_gen                    8 # number of collector unit in ports (default = 0)
-gpgpu_operand_collector_num_out_ports_sp                    1 # number of collector unit in ports (default = 1)
-gpgpu_operand_collector_num_out_ports_dp                    0 # number of collector unit in ports (default = 0)
-gpgpu_operand_collector_num_out_ports_sfu                    1 # number of collector unit in ports (default = 1)
-gpgpu_operand_collector_num_out_ports_int                    0 # number of collector unit in ports (default = 0)
-gpgpu_operand_collector_num_out_ports_tensor_core                    1 # number of collector unit in ports (default = 1)
-gpgpu_operand_collector_num_out_ports_mem                    1 # number of collector unit in ports (default = 1)
-gpgpu_operand_collector_num_out_ports_gen                    8 # number of collector unit in ports (default = 0)
-gpgpu_coalesce_arch                   60 # Coalescing arch (GT200 = 13, Fermi = 20)
-gpgpu_num_sched_per_core                    4 # Number of warp schedulers per core
-gpgpu_max_insn_issue_per_warp                    1 # Max number of instructions that can be issued per warp in one cycle by scheduler (either 1 or 2)
-gpgpu_dual_issue_diff_exec_units                    1 # should dual issue use two different execution unit resources (Default = 1)
-gpgpu_simt_core_sim_order                    1 # Select the simulation order of cores in a cluster (0=Fix, 1=Round-Robin)
-gpgpu_pipeline_widths 4,4,4,4,4,4,4,4,4,4,8,4,4 # Pipeline widths ID_OC_SP,ID_OC_DP,ID_OC_INT,ID_OC_SFU,ID_OC_MEM,OC_EX_SP,OC_EX_DP,OC_EX_INT,OC_EX_SFU,OC_EX_MEM,EX_WB,ID_OC_TENSOR_CORE,OC_EX_TENSOR_CORE
-gpgpu_tensor_core_avail                    1 # Tensor Core Available (default=0)
-gpgpu_num_sp_units                     4 # Number of SP units (default=1)
-gpgpu_num_dp_units                     4 # Number of DP units (default=0)
-gpgpu_num_int_units                    4 # Number of INT units (default=0)
-gpgpu_num_sfu_units                    4 # Number of SF units (default=1)
-gpgpu_num_tensor_core_units                    4 # Number of tensor_core units (default=1)
-gpgpu_num_mem_units                    1 # Number if ldst units (default=1) WARNING: not hooked up to anything
-gpgpu_scheduler                      gto # Scheduler configuration: < lrr | gto | two_level_active > If two_level_active:<num_active_warps>:<inner_prioritization>:<outer_prioritization>For complete list of prioritization values see shader.h enum scheduler_prioritization_typeDefault: gto
-gpgpu_concurrent_kernel_sm                    0 # Support concurrent kernels on a SM (default = disabled)
-perf_sim_memcpy                        1 # Fill the L2 cache on memcpy
-gpgpu_dram_scheduler                    1 # 0 = fifo, 1 = FR-FCFS (defaul)
-gpgpu_dram_partition_queues          64:64:64:64 # i2$:$2d:d2$:$2i
-l2_ideal                               0 # Use a ideal L2 cache that always hit
-gpgpu_cache:dl2     S:32:128:24,L:B:m:L:L,A:192:4,32:0,32 # unified banked L2 data cache config  {<nsets>:<bsize>:<assoc>,<rep>:<wr>:<alloc>:<wr_alloc>,<mshr>:<N>:<merge>,<mq>}
-gpgpu_cache:dl2_texture_only                    0 # L2 cache used for texture only
-gpgpu_n_mem                           32 # number of memory modules (e.g. memory controllers) in gpu
-gpgpu_n_sub_partition_per_mchannel                    2 # number of memory subpartition in each memory module
-gpgpu_n_mem_per_ctrlr                    1 # number of memory chips per memory controller
-gpgpu_memlatency_stat                   14 # track and display latency statistics 0x2 enables MC, 0x4 enables queue logs
-gpgpu_frfcfs_dram_sched_queue_size                   64 # 0 = unlimited (default); # entries per chip
-gpgpu_dram_return_queue_size                  192 # 0 = unlimited (default); # entries per chip
-gpgpu_dram_buswidth                   16 # default = 4 bytes (8 bytes per cycle at DDR)
-gpgpu_dram_burst_length                    2 # Burst length of each DRAM request (default = 4 data bus cycle)
-dram_data_command_freq_ratio                    2 # Frequency ratio between DRAM data bus and command bus (default = 2 times, i.e. DDR)
-gpgpu_dram_timing_opt nbk=16:CCD=1:RRD=3:RCD=12:RAS=28:RP=12:RC=40: CL=12:WL=2:CDLR=3:WR=10:nbkgrp=4:CCDL=2:RTPL=3 # DRAM timing parameters = {nbk:tCCD:tRRD:tRCD:tRAS:tRP:tRC:CL:WL:tCDLR:tWR:nbkgrp:tCCDL:tRTPL}
-rop_latency                          120 # ROP queue latency (default 85)
-dram_latency                         100 # DRAM latency (default 30)
-dual_bus_interface                     1 # dual_bus_interface (default = 0) 
-dram_bnk_indexing_policy                    0 # dram_bnk_indexing_policy (0 = normal indexing, 1 = Xoring with the higher bits) (Default = 0)
-dram_bnkgrp_indexing_policy                    1 # dram_bnkgrp_indexing_policy (0 = take higher bits, 1 = take lower bits) (Default = 0)
-Seperate_Write_Queue_Enable                    0 # Seperate_Write_Queue_Enable
-Write_Queue_Size                32:28:16 # Write_Queue_Size
-Elimnate_rw_turnaround                    0 # elimnate_rw_turnaround i.e set tWTR and tRTW = 0
-icnt_flit_size                        40 # icnt_flit_size
-gpgpu_mem_addr_mapping dramid@8;00000000.00000000.00000000.00000000.0000RRRR.RRRRRRRR.RBBBCCCB.CCCSSSSS # mapping memory address to dram model {dramid@<start bit>;<memory address map>}
-gpgpu_mem_addr_test                    0 # run sweep test to check address mapping for aliased address
-gpgpu_mem_address_mask                    1 # 0 = old addressing mask, 1 = new addressing mask, 2 = new add. mask + flipped bank sel and chip sel bits
-memory_partition_indexing                    0 # 0 = no indexing, 1 = bitwise xoring, 2 = IPoly, 3 = custom indexing
-gpuwattch_xml_file  gpuwattch_gtx1080Ti_to_volta.xml # GPUWattch XML file
-power_simulation_enabled                    1 # Turn on power simulator (1=On, 0=Off)
-power_per_cycle_dump                    0 # Dump detailed power output each cycle
-power_trace_enabled                    0 # produce a file for the power trace (1=On, 0=Off)
-power_trace_zlevel                     6 # Compression level of the power trace output log (0=no comp, 9=highest)
-steady_power_levels_enabled                    0 # produce a file for the steady power levels (1=On, 0=Off)
-steady_state_definition                  8:4 # allowed deviation:number of samples
-gpgpu_max_cycle                        0 # terminates gpu simulation early (0 = no limit)
-gpgpu_max_insn                         0 # terminates gpu simulation early (0 = no limit)
-gpgpu_max_cta                          0 # terminates gpu simulation early (0 = no limit)
-gpgpu_runtime_stat                   500 # display runtime statistics such as dram utilization {<freq>:<flag>}
-liveness_message_freq                    1 # Minimum number of seconds between simulation liveness messages (0 = always print)
-gpgpu_compute_capability_major                    7 # Major compute capability version number
-gpgpu_compute_capability_minor                    0 # Minor compute capability version number
-gpgpu_flush_l1_cache                    1 # Flush L1 cache at the end of each kernel call
-gpgpu_flush_l2_cache                    0 # Flush L2 cache at the end of each kernel call
-gpgpu_deadlock_detect                    1 # Stop the simulation at deadlock (1=on (default), 0=off)
-gpgpu_ptx_instruction_classification                    0 # if enabled will classify ptx instruction types per kernel (Max 255 kernels now)
-gpgpu_ptx_sim_mode                     0 # Select between Performance (default) or Functional simulation (1)
-gpgpu_clock_domains 1455.0:1455.0:1455.0:850.0 # Clock Domain Frequencies in MhZ {<Core Clock>:<ICNT Clock>:<L2 Clock>:<DRAM Clock>}
-gpgpu_max_concurrent_kernel                    8 # maximum kernels that can run concurrently on GPU
-gpgpu_cflog_interval                    0 # Interval between each snapshot in control flow logger
-visualizer_enabled                     0 # Turn on visualizer output (1=On, 0=Off)
-visualizer_outputfile                 NULL # Specifies the output log file for visualizer
-visualizer_zlevel                      6 # Compression level of the visualizer output log (0=no comp, 9=highest)
-gpgpu_stack_size_limit                 1024 # GPU thread stack size
-gpgpu_heap_size_limit              8388608 # GPU malloc heap size 
-gpgpu_runtime_sync_depth_limit                    2 # GPU device runtime synchronize depth
-gpgpu_runtime_pending_launch_count_limit                 2048 # GPU device runtime pending launch count
-trace_enabled                          0 # Turn on traces
-trace_components                    none # comma seperated list of traces to enable. Complete list found in trace_streams.tup. Default none
-trace_sampling_core                    0 # The core which is printed using CORE_DPRINTF. Default 0
-trace_sampling_memory_partition                   -1 # The memory partition which is printed using MEMPART_DPRINTF. Default -1 (i.e. all)
-enable_ptx_file_line_stats                    1 # Turn on PTX source line statistic profiling. (1 = On)
-ptx_line_stats_filename gpgpu_inst_stats.txt # Output file for PTX source line statistics.
-gpgpu_kernel_launch_latency                    0 # Kernel launch latency in cycles. Default: 0
-gpgpu_cdp_enabled                      0 # Turn on CDP
DRAM Timing Options:
nbk                                    16 # number of banks
CCD                                     1 # column to column delay
RRD                                     3 # minimal delay between activation of rows in different banks
RCD                                    12 # row to column delay
RAS                                    28 # time needed to activate row
RP                                     12 # time needed to precharge (deactivate) row
RC                                     40 # row cycle time
CDLR                                    3 # switching from write to read (changes tWTR)
WR                                     10 # last data-in to row precharge
CL                                     12 # CAS latency
WL                                      2 # Write latency
nbkgrp                                  4 # number of bank groups
CCDL                                    2 # column to column delay between accesses to different bank groups
RTPL                                    3 # read to precharge delay between accesses to different bank groups
Total number of memory sub partition = 64
addr_dec_mask[CHIP]  = 0000000000001f00 	high:13 low:8
addr_dec_mask[BK]    = 00000000000e2000 	high:20 low:13
addr_dec_mask[ROW]   = 00000001fff00000 	high:33 low:20
addr_dec_mask[COL]   = 000000000001c0ff 	high:17 low:0
addr_dec_mask[BURST] = 000000000000001f 	high:5 low:0
sub_partition_id_mask = 0000000000002000
GPGPU-Sim uArch: clock freqs: 1455000000.000000:1455000000.000000:1455000000.000000:850000000.000000
GPGPU-Sim uArch: clock periods: 0.00000000068728522337:0.00000000068728522337:0.00000000068728522337:0.00000000117647058824
*** Initializing Memory Statistics ***
GPGPU-Sim uArch: interconnect node map (shaderID+MemID to icntID)
GPGPU-Sim uArch: Memory nodes ID start from index: 40
GPGPU-Sim uArch:    0   1   2   3   4   5   6   7   8   9
GPGPU-Sim uArch:   10  11  12  13  14  15  16  17  18  19
GPGPU-Sim uArch:   20  21  22  23  24  25  26  27  28  29
GPGPU-Sim uArch:   30  31  32  33  34  35  36  37  38  39
GPGPU-Sim uArch:   40  41  42  43  44  45  46  47  48  49
GPGPU-Sim uArch:   50  51  52  53  54  55  56  57  58  59
GPGPU-Sim uArch:   60  61  62  63  64  65  66  67  68  69
GPGPU-Sim uArch:   70  71  72  73  74  75  76  77  78  79
GPGPU-Sim uArch:   80  81  82  83  84  85  86  87  88  89
GPGPU-Sim uArch:   90  91  92  93  94  95  96  97  98  99
GPGPU-Sim uArch:  100 101 102 103
GPGPU-Sim uArch: interconnect node reverse map (icntID to shaderID+MemID)
GPGPU-Sim uArch: Memory nodes start from ID: 40
GPGPU-Sim uArch:    0   1   2   3   4   5   6   7   8   9
GPGPU-Sim uArch:   10  11  12  13  14  15  16  17  18  19
GPGPU-Sim uArch:   20  21  22  23  24  25  26  27  28  29
GPGPU-Sim uArch:   30  31  32  33  34  35  36  37  38  39
GPGPU-Sim uArch:   40  41  42  43  44  45  46  47  48  49
GPGPU-Sim uArch:   50  51  52  53  54  55  56  57  58  59
GPGPU-Sim uArch:   60  61  62  63  64  65  66  67  68  69
GPGPU-Sim uArch:   70  71  72  73  74  75  76  77  78  79
GPGPU-Sim uArch:   80  81  82  83  84  85  86  87  88  89
GPGPU-Sim uArch:   90  91  92  93  94  95  96  97  98  99
GPGPU-Sim uArch:  100 101 102 103
165296b46eae36f50f169035f3df9f9e  /home/seongguk/rodinia_3.1_dev/bin/linux/cuda/bfs
Extracting PTX file and ptxas options    1: bfs.1.sm_30.ptx -arch=sm_30
GPGPU-Sim uArch: performance model initialization complete.
self exe links to: /home/seongguk/rodinia_3.1_dev/bin/linux/cuda/bfs
self exe links to: /home/seongguk/rodinia_3.1_dev/bin/linux/cuda/bfs
9.1
GPGPU-Sim PTX: __cudaRegisterFatBinary, fat_cubin_handle = 1, filename=default
self exe links to: /home/seongguk/rodinia_3.1_dev/bin/linux/cuda/bfs
Running md5sum using "md5sum /home/seongguk/rodinia_3.1_dev/bin/linux/cuda/bfs "
self exe links to: /home/seongguk/rodinia_3.1_dev/bin/linux/cuda/bfs
Extracting specific PTX file named bfs.1.sm_30.ptx 
GPGPU-Sim PTX: __cudaRegisterFunction _Z7Kernel2PbS_S_S_i : hostFun 0x0x401829, fat_cubin_handle = 1
GPGPU-Sim PTX: Parsing bfs.1.sm_30.ptx
GPGPU-Sim PTX: instruction assembly for function '_Z6KernelP4NodePiPbS2_S2_S1_i'...   done.
GPGPU-Sim PTX: instruction assembly for function '_Z7Kernel2PbS_S_S_i'...   done.
GPGPU-Sim PTX: finished parsing EMBEDDED .ptx file bfs.1.sm_30.ptx
GPGPU-Sim PTX: loading globals with explicit initializers... 
GPGPU-Sim PTX: finished loading globals (0 bytes total).
GPGPU-Sim PTX: loading constants with explicit initializers...  done.
GPGPU-Sim PTX: Loading PTXInfo from bfs.1.sm_30.ptx
GPGPU-Sim PTX: Kernel '_Z7Kernel2PbS_S_S_i' : regs=12, lmem=0, smem=0, cmem=356
GPGPU-Sim PTX: Kernel '_Z6KernelP4NodePiPbS2_S2_S1_i' : regs=19, lmem=0, smem=0, cmem=372
GPGPU-Sim PTX: __cudaRegisterFunction _Z6KernelP4NodePiPbS2_S2_S1_i : hostFun 0x0x4016f9, fat_cubin_handle = 1
Reading File
Read File
Copied Everything to GPU memory
Start traversing the tree
GPGPU-Sim PTX: Setting up arguments for 8 bytes starting at 0x7ffff2949d98..
GPGPU-Sim PTX: Setting up arguments for 8 bytes starting at 0x7ffff2949d90..
GPGPU-Sim PTX: Setting up arguments for 8 bytes starting at 0x7ffff2949d88..
GPGPU-Sim PTX: Setting up arguments for 8 bytes starting at 0x7ffff2949d80..
GPGPU-Sim PTX: Setting up arguments for 8 bytes starting at 0x7ffff2949d78..
GPGPU-Sim PTX: Setting up arguments for 8 bytes starting at 0x7ffff2949d70..
GPGPU-Sim PTX: Setting up arguments for 4 bytes starting at 0x7ffff2949db0..

GPGPU-Sim PTX: cudaLaunch for 0x0x4016f9 (mode=performance simulation) on stream 0
GPGPU-Sim PTX: finding reconvergence points for '_Z6KernelP4NodePiPbS2_S2_S1_i'...
GPGPU-Sim PTX: Finding dominators for '_Z6KernelP4NodePiPbS2_S2_S1_i'...
GPGPU-Sim PTX: Finding immediate dominators for '_Z6KernelP4NodePiPbS2_S2_S1_i'...
GPGPU-Sim PTX: Finding postdominators for '_Z6KernelP4NodePiPbS2_S2_S1_i'...
GPGPU-Sim PTX: Finding immediate postdominators for '_Z6KernelP4NodePiPbS2_S2_S1_i'...
GPGPU-Sim PTX: pre-decoding instructions for '_Z6KernelP4NodePiPbS2_S2_S1_i'...
GPGPU-Sim PTX: reconvergence points for _Z6KernelP4NodePiPbS2_S2_S1_i...
GPGPU-Sim PTX:  1 (potential) branch divergence @  PC=0x060 (bfs.1.sm_30.ptx:43) @%p1 bra BB0_7;
GPGPU-Sim PTX:    immediate post dominator      @  PC=0x1d8 (bfs.1.sm_30.ptx:100) ret;
GPGPU-Sim PTX:  2 (potential) branch divergence @  PC=0x090 (bfs.1.sm_30.ptx:50) @%p2 bra BB0_7;
GPGPU-Sim PTX:    immediate post dominator      @  PC=0x1d8 (bfs.1.sm_30.ptx:100) ret;
GPGPU-Sim PTX:  3 (potential) branch divergence @  PC=0x0d8 (bfs.1.sm_30.ptx:60) @%p3 bra BB0_7;
GPGPU-Sim PTX:    immediate post dominator      @  PC=0x1d8 (bfs.1.sm_30.ptx:100) ret;
GPGPU-Sim PTX:  4 (potential) branch divergence @  PC=0x158 (bfs.1.sm_30.ptx:79) @%p4 bra BB0_6;
GPGPU-Sim PTX:    immediate post dominator      @  PC=0x1b0 (bfs.1.sm_30.ptx:93) add.s64 %rd31, %rd31, 4;
GPGPU-Sim PTX:  5 (potential) branch divergence @  PC=0x1d0 (bfs.1.sm_30.ptx:97) @%p5 bra BB0_4;
GPGPU-Sim PTX:    immediate post dominator      @  PC=0x1d8 (bfs.1.sm_30.ptx:100) ret;
GPGPU-Sim PTX: ... end of reconvergence points for _Z6KernelP4NodePiPbS2_S2_S1_i
GPGPU-Sim PTX: ... done pre-decoding instructions for '_Z6KernelP4NodePiPbS2_S2_S1_i'.
GPGPU-Sim PTX: pushing kernel '_Z6KernelP4NodePiPbS2_S2_S1_i' to stream 0, gridDim= (1954,1,1) blockDim = (512,1,1) 
GPGPU-Sim uArch: Shader 0 bind to kernel 1 '_Z6KernelP4NodePiPbS2_S2_S1_i'
GPGPU-Sim uArch: CTA/core = 4, limited by: threads
GPGPU-Sim: Reconfigure L1 cache in Volta Archi to 128KB
GPGPU-Sim uArch: Shader 2 bind to kernel 1 '_Z6KernelP4NodePiPbS2_S2_S1_i'
GPGPU-Sim uArch: Shader 4 bind to kernel 1 '_Z6KernelP4NodePiPbS2_S2_S1_i'
GPGPU-Sim uArch: Shader 6 bind to kernel 1 '_Z6KernelP4NodePiPbS2_S2_S1_i'
GPGPU-Sim uArch: Shader 8 bind to kernel 1 '_Z6KernelP4NodePiPbS2_S2_S1_i'
GPGPU-Sim uArch: Shader 10 bind to kernel 1 '_Z6KernelP4NodePiPbS2_S2_S1_i'
GPGPU-Sim uArch: Shader 12 bind to kernel 1 '_Z6KernelP4NodePiPbS2_S2_S1_i'
GPGPU-Sim uArch: Shader 14 bind to kernel 1 '_Z6KernelP4NodePiPbS2_S2_S1_i'
GPGPU-Sim uArch: Shader 16 bind to kernel 1 '_Z6KernelP4NodePiPbS2_S2_S1_i'
GPGPU-Sim uArch: Shader 18 bind to kernel 1 '_Z6KernelP4NodePiPbS2_S2_S1_i'
GPGPU-Sim uArch: Shader 20 bind to kernel 1 '_Z6KernelP4NodePiPbS2_S2_S1_i'
GPGPU-Sim uArch: Shader 22 bind to kernel 1 '_Z6KernelP4NodePiPbS2_S2_S1_i'
GPGPU-Sim uArch: Shader 24 bind to kernel 1 '_Z6KernelP4NodePiPbS2_S2_S1_i'
GPGPU-Sim uArch: Shader 26 bind to kernel 1 '_Z6KernelP4NodePiPbS2_S2_S1_i'
GPGPU-Sim uArch: Shader 28 bind to kernel 1 '_Z6KernelP4NodePiPbS2_S2_S1_i'
GPGPU-Sim uArch: Shader 30 bind to kernel 1 '_Z6KernelP4NodePiPbS2_S2_S1_i'
GPGPU-Sim uArch: Shader 32 bind to kernel 1 '_Z6KernelP4NodePiPbS2_S2_S1_i'
GPGPU-Sim uArch: Shader 34 bind to kernel 1 '_Z6KernelP4NodePiPbS2_S2_S1_i'
GPGPU-Sim uArch: Shader 36 bind to kernel 1 '_Z6KernelP4NodePiPbS2_S2_S1_i'
GPGPU-Sim uArch: Shader 38 bind to kernel 1 '_Z6KernelP4NodePiPbS2_S2_S1_i'
GPGPU-Sim uArch: Shader 40 bind to kernel 1 '_Z6KernelP4NodePiPbS2_S2_S1_i'
GPGPU-Sim uArch: Shader 42 bind to kernel 1 '_Z6KernelP4NodePiPbS2_S2_S1_i'
GPGPU-Sim uArch: Shader 44 bind to kernel 1 '_Z6KernelP4NodePiPbS2_S2_S1_i'
GPGPU-Sim uArch: Shader 46 bind to kernel 1 '_Z6KernelP4NodePiPbS2_S2_S1_i'
GPGPU-Sim uArch: Shader 48 bind to kernel 1 '_Z6KernelP4NodePiPbS2_S2_S1_i'
GPGPU-Sim uArch: Shader 50 bind to kernel 1 '_Z6KernelP4NodePiPbS2_S2_S1_i'
GPGPU-Sim uArch: Shader 52 bind to kernel 1 '_Z6KernelP4NodePiPbS2_S2_S1_i'
GPGPU-Sim uArch: Shader 54 bind to kernel 1 '_Z6KernelP4NodePiPbS2_S2_S1_i'
GPGPU-Sim uArch: Shader 56 bind to kernel 1 '_Z6KernelP4NodePiPbS2_S2_S1_i'
GPGPU-Sim uArch: Shader 58 bind to kernel 1 '_Z6KernelP4NodePiPbS2_S2_S1_i'
GPGPU-Sim uArch: Shader 60 bind to kernel 1 '_Z6KernelP4NodePiPbS2_S2_S1_i'
GPGPU-Sim uArch: Shader 62 bind to kernel 1 '_Z6KernelP4NodePiPbS2_S2_S1_i'
GPGPU-Sim uArch: Shader 64 bind to kernel 1 '_Z6KernelP4NodePiPbS2_S2_S1_i'
GPGPU-Sim uArch: Shader 66 bind to kernel 1 '_Z6KernelP4NodePiPbS2_S2_S1_i'
GPGPU-Sim uArch: Shader 68 bind to kernel 1 '_Z6KernelP4NodePiPbS2_S2_S1_i'
GPGPU-Sim uArch: Shader 70 bind to kernel 1 '_Z6KernelP4NodePiPbS2_S2_S1_i'
GPGPU-Sim uArch: Shader 72 bind to kernel 1 '_Z6KernelP4NodePiPbS2_S2_S1_i'
GPGPU-Sim uArch: Shader 74 bind to kernel 1 '_Z6KernelP4NodePiPbS2_S2_S1_i'
GPGPU-Sim uArch: Shader 76 bind to kernel 1 '_Z6KernelP4NodePiPbS2_S2_S1_i'
GPGPU-Sim uArch: Shader 78 bind to kernel 1 '_Z6KernelP4NodePiPbS2_S2_S1_i'
GPGPU-Sim uArch: Shader 1 bind to kernel 1 '_Z6KernelP4NodePiPbS2_S2_S1_i'
GPGPU-Sim uArch: Shader 3 bind to kernel 1 '_Z6KernelP4NodePiPbS2_S2_S1_i'
GPGPU-Sim uArch: Shader 5 bind to kernel 1 '_Z6KernelP4NodePiPbS2_S2_S1_i'
GPGPU-Sim uArch: Shader 7 bind to kernel 1 '_Z6KernelP4NodePiPbS2_S2_S1_i'
GPGPU-Sim uArch: Shader 9 bind to kernel 1 '_Z6KernelP4NodePiPbS2_S2_S1_i'
GPGPU-Sim uArch: Shader 11 bind to kernel 1 '_Z6KernelP4NodePiPbS2_S2_S1_i'
GPGPU-Sim uArch: Shader 13 bind to kernel 1 '_Z6KernelP4NodePiPbS2_S2_S1_i'
GPGPU-Sim uArch: Shader 15 bind to kernel 1 '_Z6KernelP4NodePiPbS2_S2_S1_i'
GPGPU-Sim uArch: Shader 17 bind to kernel 1 '_Z6KernelP4NodePiPbS2_S2_S1_i'
GPGPU-Sim uArch: Shader 19 bind to kernel 1 '_Z6KernelP4NodePiPbS2_S2_S1_i'
GPGPU-Sim uArch: Shader 21 bind to kernel 1 '_Z6KernelP4NodePiPbS2_S2_S1_i'
GPGPU-Sim uArch: Shader 23 bind to kernel 1 '_Z6KernelP4NodePiPbS2_S2_S1_i'
GPGPU-Sim uArch: Shader 25 bind to kernel 1 '_Z6KernelP4NodePiPbS2_S2_S1_i'
GPGPU-Sim uArch: Shader 27 bind to kernel 1 '_Z6KernelP4NodePiPbS2_S2_S1_i'
GPGPU-Sim uArch: Shader 29 bind to kernel 1 '_Z6KernelP4NodePiPbS2_S2_S1_i'
GPGPU-Sim uArch: Shader 31 bind to kernel 1 '_Z6KernelP4NodePiPbS2_S2_S1_i'
GPGPU-Sim uArch: Shader 33 bind to kernel 1 '_Z6KernelP4NodePiPbS2_S2_S1_i'
GPGPU-Sim uArch: Shader 35 bind to kernel 1 '_Z6KernelP4NodePiPbS2_S2_S1_i'
GPGPU-Sim uArch: Shader 37 bind to kernel 1 '_Z6KernelP4NodePiPbS2_S2_S1_i'
GPGPU-Sim uArch: Shader 39 bind to kernel 1 '_Z6KernelP4NodePiPbS2_S2_S1_i'
GPGPU-Sim uArch: Shader 41 bind to kernel 1 '_Z6KernelP4NodePiPbS2_S2_S1_i'
GPGPU-Sim uArch: Shader 43 bind to kernel 1 '_Z6KernelP4NodePiPbS2_S2_S1_i'
GPGPU-Sim uArch: Shader 45 bind to kernel 1 '_Z6KernelP4NodePiPbS2_S2_S1_i'
GPGPU-Sim uArch: Shader 47 bind to kernel 1 '_Z6KernelP4NodePiPbS2_S2_S1_i'
GPGPU-Sim uArch: Shader 49 bind to kernel 1 '_Z6KernelP4NodePiPbS2_S2_S1_i'
GPGPU-Sim uArch: Shader 51 bind to kernel 1 '_Z6KernelP4NodePiPbS2_S2_S1_i'
GPGPU-Sim uArch: Shader 53 bind to kernel 1 '_Z6KernelP4NodePiPbS2_S2_S1_i'
GPGPU-Sim uArch: Shader 55 bind to kernel 1 '_Z6KernelP4NodePiPbS2_S2_S1_i'
GPGPU-Sim uArch: Shader 57 bind to kernel 1 '_Z6KernelP4NodePiPbS2_S2_S1_i'
GPGPU-Sim uArch: Shader 59 bind to kernel 1 '_Z6KernelP4NodePiPbS2_S2_S1_i'
GPGPU-Sim uArch: Shader 61 bind to kernel 1 '_Z6KernelP4NodePiPbS2_S2_S1_i'
GPGPU-Sim uArch: Shader 63 bind to kernel 1 '_Z6KernelP4NodePiPbS2_S2_S1_i'
GPGPU-Sim uArch: Shader 65 bind to kernel 1 '_Z6KernelP4NodePiPbS2_S2_S1_i'
GPGPU-Sim uArch: Shader 67 bind to kernel 1 '_Z6KernelP4NodePiPbS2_S2_S1_i'
GPGPU-Sim uArch: Shader 69 bind to kernel 1 '_Z6KernelP4NodePiPbS2_S2_S1_i'
GPGPU-Sim uArch: Shader 71 bind to kernel 1 '_Z6KernelP4NodePiPbS2_S2_S1_i'
GPGPU-Sim uArch: Shader 73 bind to kernel 1 '_Z6KernelP4NodePiPbS2_S2_S1_i'
GPGPU-Sim uArch: Shader 75 bind to kernel 1 '_Z6KernelP4NodePiPbS2_S2_S1_i'
GPGPU-Sim uArch: Shader 77 bind to kernel 1 '_Z6KernelP4NodePiPbS2_S2_S1_i'
GPGPU-Sim uArch: Shader 79 bind to kernel 1 '_Z6KernelP4NodePiPbS2_S2_S1_i'
Destroy streams for kernel 1: size 0
GPGPU-Sim PTX: Setting up arguments for 8 bytes starting at 0x7ffff2949db8..
GPGPU-Sim PTX: Setting up arguments for 8 bytes starting at 0x7ffff2949db0..
GPGPU-Sim PTX: Setting up arguments for 8 bytes starting at 0x7ffff2949da8..
GPGPU-Sim PTX: Setting up arguments for 8 bytes starting at 0x7ffff2949da0..
GPGPU-Sim PTX: Setting up arguments for 4 bytes starting at 0x7ffff2949d9c..

GPGPU-Sim PTX: cudaLaunch for 0x0x401829 (mode=performance simulation) on stream 0
GPGPU-Sim PTX: finding reconvergence points for '_Z7Kernel2PbS_S_S_i'...
GPGPU-Sim PTX: Finding dominators for '_Z7Kernel2PbS_S_S_i'...
GPGPU-Sim PTX: Finding immediate dominators for '_Z7Kernel2PbS_S_S_i'...
GPGPU-Sim PTX: Finding postdominators for '_Z7Kernel2PbS_S_S_i'...
GPGPU-Sim PTX: Finding immediate postdominators for '_Z7Kernel2PbS_S_S_i'...
GPGPU-Sim PTX: pre-decoding instructions for '_Z7Kernel2PbS_S_S_i'...
GPGPU-Sim PTX: reconvergence points for _Z7Kernel2PbS_S_S_i...
GPGPU-Sim PTX:  1 (potential) branch divergence @  PC=0x230 (bfs.1.sm_30.ptx:128) @%p1 bra BB1_3;
GPGPU-Sim PTX:    immediate post dominator      @  PC=0x2c0 (bfs.1.sm_30.ptx:150) ret;
GPGPU-Sim PTX:  2 (potential) branch divergence @  PC=0x260 (bfs.1.sm_30.ptx:135) @%p2 bra BB1_3;
GPGPU-Sim PTX:    immediate post dominator      @  PC=0x2c0 (bfs.1.sm_30.ptx:150) ret;
GPGPU-Sim PTX: ... end of reconvergence points for _Z7Kernel2PbS_S_S_i
GPGPU-Sim PTX: ... done pre-decoding instructions for '_Z7Kernel2PbS_S_S_i'.
GPGPU-Sim PTX: pushing kernel '_Z7Kernel2PbS_S_S_i' to stream 0, gridDim= (1954,1,1) blockDim = (512,1,1) 
kernel_name = _Z6KernelP4NodePiPbS2_S2_S1_i 
kernel_launch_uid = 1 
gpu_sim_cycle = 8414
gpu_sim_insn = 19006348
gpu_ipc =    2258.8958
gpu_tot_sim_cycle = 8414
gpu_tot_sim_insn = 19006348
gpu_tot_ipc =    2258.8958
gpu_tot_issued_cta = 1954
gpu_occupancy = 96.7140% 
gpu_tot_occupancy = 96.7140% 
max_total_param_size = 0
gpu_stall_dramfull = 1104
gpu_stall_icnt2sh    = 0
partiton_level_parallism =       3.7539
partiton_level_parallism_total  =       3.7539
partiton_level_parallism_util =       6.9387
partiton_level_parallism_util_total  =       6.9387
L2_BW  =     179.2234 GB/Sec
L2_BW_total  =     179.2234 GB/Sec
gpu_total_sim_rate=190063

========= Core cache stats =========
L1I_cache:
	L1I_total_cache_accesses = 343903
	L1I_total_cache_misses = 11521
	L1I_total_cache_miss_rate = 0.0335
	L1I_total_cache_pending_hits = 0
	L1I_total_cache_reservation_fails = 72746
L1D_cache:
	L1D_cache_core[0]: Access = 824, Miss = 812, Miss_rate = 0.985, Pending_hits = 0, Reservation_fails = 0
	L1D_cache_core[1]: Access = 800, Miss = 800, Miss_rate = 1.000, Pending_hits = 0, Reservation_fails = 0
	L1D_cache_core[2]: Access = 768, Miss = 768, Miss_rate = 1.000, Pending_hits = 0, Reservation_fails = 0
	L1D_cache_core[3]: Access = 816, Miss = 816, Miss_rate = 1.000, Pending_hits = 0, Reservation_fails = 0
	L1D_cache_core[4]: Access = 768, Miss = 768, Miss_rate = 1.000, Pending_hits = 0, Reservation_fails = 0
	L1D_cache_core[5]: Access = 800, Miss = 800, Miss_rate = 1.000, Pending_hits = 0, Reservation_fails = 0
	L1D_cache_core[6]: Access = 784, Miss = 784, Miss_rate = 1.000, Pending_hits = 0, Reservation_fails = 0
	L1D_cache_core[7]: Access = 768, Miss = 768, Miss_rate = 1.000, Pending_hits = 0, Reservation_fails = 0
	L1D_cache_core[8]: Access = 768, Miss = 768, Miss_rate = 1.000, Pending_hits = 0, Reservation_fails = 0
	L1D_cache_core[9]: Access = 768, Miss = 768, Miss_rate = 1.000, Pending_hits = 0, Reservation_fails = 0
	L1D_cache_core[10]: Access = 768, Miss = 768, Miss_rate = 1.000, Pending_hits = 0, Reservation_fails = 0
	L1D_cache_core[11]: Access = 768, Miss = 768, Miss_rate = 1.000, Pending_hits = 0, Reservation_fails = 0
	L1D_cache_core[12]: Access = 848, Miss = 848, Miss_rate = 1.000, Pending_hits = 0, Reservation_fails = 0
	L1D_cache_core[13]: Access = 816, Miss = 816, Miss_rate = 1.000, Pending_hits = 0, Reservation_fails = 0
	L1D_cache_core[14]: Access = 768, Miss = 768, Miss_rate = 1.000, Pending_hits = 0, Reservation_fails = 0
	L1D_cache_core[15]: Access = 768, Miss = 768, Miss_rate = 1.000, Pending_hits = 0, Reservation_fails = 0
	L1D_cache_core[16]: Access = 768, Miss = 768, Miss_rate = 1.000, Pending_hits = 0, Reservation_fails = 0
	L1D_cache_core[17]: Access = 768, Miss = 768, Miss_rate = 1.000, Pending_hits = 0, Reservation_fails = 0
	L1D_cache_core[18]: Access = 784, Miss = 784, Miss_rate = 1.000, Pending_hits = 0, Reservation_fails = 0
	L1D_cache_core[19]: Access = 768, Miss = 768, Miss_rate = 1.000, Pending_hits = 0, Reservation_fails = 0
	L1D_cache_core[20]: Access = 768, Miss = 768, Miss_rate = 1.000, Pending_hits = 0, Reservation_fails = 0
	L1D_cache_core[21]: Access = 832, Miss = 832, Miss_rate = 1.000, Pending_hits = 0, Reservation_fails = 0
	L1D_cache_core[22]: Access = 768, Miss = 768, Miss_rate = 1.000, Pending_hits = 0, Reservation_fails = 0
	L1D_cache_core[23]: Access = 800, Miss = 800, Miss_rate = 1.000, Pending_hits = 0, Reservation_fails = 0
	L1D_cache_core[24]: Access = 768, Miss = 768, Miss_rate = 1.000, Pending_hits = 0, Reservation_fails = 0
	L1D_cache_core[25]: Access = 768, Miss = 768, Miss_rate = 1.000, Pending_hits = 0, Reservation_fails = 0
	L1D_cache_core[26]: Access = 784, Miss = 784, Miss_rate = 1.000, Pending_hits = 0, Reservation_fails = 0
	L1D_cache_core[27]: Access = 768, Miss = 768, Miss_rate = 1.000, Pending_hits = 0, Reservation_fails = 0
	L1D_cache_core[28]: Access = 786, Miss = 786, Miss_rate = 1.000, Pending_hits = 0, Reservation_fails = 0
	L1D_cache_core[29]: Access = 816, Miss = 816, Miss_rate = 1.000, Pending_hits = 0, Reservation_fails = 0
	L1D_cache_core[30]: Access = 768, Miss = 768, Miss_rate = 1.000, Pending_hits = 0, Reservation_fails = 0
	L1D_cache_core[31]: Access = 768, Miss = 768, Miss_rate = 1.000, Pending_hits = 0, Reservation_fails = 0
	L1D_cache_core[32]: Access = 768, Miss = 768, Miss_rate = 1.000, Pending_hits = 0, Reservation_fails = 0
	L1D_cache_core[33]: Access = 768, Miss = 768, Miss_rate = 1.000, Pending_hits = 0, Reservation_fails = 0
	L1D_cache_core[34]: Access = 768, Miss = 768, Miss_rate = 1.000, Pending_hits = 0, Reservation_fails = 0
	L1D_cache_core[35]: Access = 800, Miss = 800, Miss_rate = 1.000, Pending_hits = 0, Reservation_fails = 0
	L1D_cache_core[36]: Access = 768, Miss = 768, Miss_rate = 1.000, Pending_hits = 0, Reservation_fails = 0
	L1D_cache_core[37]: Access = 784, Miss = 784, Miss_rate = 1.000, Pending_hits = 0, Reservation_fails = 0
	L1D_cache_core[38]: Access = 768, Miss = 768, Miss_rate = 1.000, Pending_hits = 0, Reservation_fails = 0
	L1D_cache_core[39]: Access = 768, Miss = 768, Miss_rate = 1.000, Pending_hits = 0, Reservation_fails = 0
	L1D_total_cache_accesses = 31274
	L1D_total_cache_misses = 31262
	L1D_total_cache_miss_rate = 0.9996
	L1D_total_cache_pending_hits = 0
	L1D_total_cache_reservation_fails = 0
	L1D_cache_data_port_util = 0.000
	L1D_cache_fill_port_util = 0.012
L1C_cache:
	L1C_total_cache_accesses = 218848
	L1C_total_cache_misses = 5120
	L1C_total_cache_miss_rate = 0.0234
	L1C_total_cache_pending_hits = 0
	L1C_total_cache_reservation_fails = 125340
L1T_cache:
	L1T_total_cache_accesses = 0
	L1T_total_cache_misses = 0
	L1T_total_cache_pending_hits = 0
	L1T_total_cache_reservation_fails = 0

Total_core_cache_stats:
	Total_core_cache_stats_breakdown[GLOBAL_ACC_R][HIT] = 10
	Total_core_cache_stats_breakdown[GLOBAL_ACC_R][HIT_RESERVED] = 0
	Total_core_cache_stats_breakdown[GLOBAL_ACC_R][MISS] = 7820
	Total_core_cache_stats_breakdown[GLOBAL_ACC_R][RESERVATION_FAIL] = 0
	Total_core_cache_stats_breakdown[GLOBAL_ACC_R][SECTOR_MISS] = 23437
	Total_core_cache_stats_breakdown[LOCAL_ACC_R][HIT] = 0
	Total_core_cache_stats_breakdown[LOCAL_ACC_R][HIT_RESERVED] = 0
	Total_core_cache_stats_breakdown[LOCAL_ACC_R][MISS] = 0
	Total_core_cache_stats_breakdown[LOCAL_ACC_R][RESERVATION_FAIL] = 0
	Total_core_cache_stats_breakdown[LOCAL_ACC_R][SECTOR_MISS] = 0
	Total_core_cache_stats_breakdown[CONST_ACC_R][HIT] = 213728
	Total_core_cache_stats_breakdown[CONST_ACC_R][HIT_RESERVED] = 0
	Total_core_cache_stats_breakdown[CONST_ACC_R][MISS] = 5120
	Total_core_cache_stats_breakdown[CONST_ACC_R][RESERVATION_FAIL] = 125340
	Total_core_cache_stats_breakdown[CONST_ACC_R][SECTOR_MISS] = 0
	Total_core_cache_stats_breakdown[TEXTURE_ACC_R][HIT] = 0
	Total_core_cache_stats_breakdown[TEXTURE_ACC_R][HIT_RESERVED] = 0
	Total_core_cache_stats_breakdown[TEXTURE_ACC_R][MISS] = 0
	Total_core_cache_stats_breakdown[TEXTURE_ACC_R][RESERVATION_FAIL] = 0
	Total_core_cache_stats_breakdown[TEXTURE_ACC_R][SECTOR_MISS] = 0
	Total_core_cache_stats_breakdown[GLOBAL_ACC_W][HIT] = 2
	Total_core_cache_stats_breakdown[GLOBAL_ACC_W][HIT_RESERVED] = 0
	Total_core_cache_stats_breakdown[GLOBAL_ACC_W][MISS] = 5
	Total_core_cache_stats_breakdown[GLOBAL_ACC_W][RESERVATION_FAIL] = 0
	Total_core_cache_stats_breakdown[GLOBAL_ACC_W][SECTOR_MISS] = 0
	Total_core_cache_stats_breakdown[LOCAL_ACC_W][HIT] = 0
	Total_core_cache_stats_breakdown[LOCAL_ACC_W][HIT_RESERVED] = 0
	Total_core_cache_stats_breakdown[LOCAL_ACC_W][MISS] = 0
	Total_core_cache_stats_breakdown[LOCAL_ACC_W][RESERVATION_FAIL] = 0
	Total_core_cache_stats_breakdown[LOCAL_ACC_W][SECTOR_MISS] = 0
	Total_core_cache_stats_breakdown[L1_WRBK_ACC][HIT] = 0
	Total_core_cache_stats_breakdown[L1_WRBK_ACC][HIT_RESERVED] = 0
	Total_core_cache_stats_breakdown[L1_WRBK_ACC][MISS] = 0
	Total_core_cache_stats_breakdown[L1_WRBK_ACC][RESERVATION_FAIL] = 0
	Total_core_cache_stats_breakdown[L1_WRBK_ACC][SECTOR_MISS] = 0
	Total_core_cache_stats_breakdown[L2_WRBK_ACC][HIT] = 0
	Total_core_cache_stats_breakdown[L2_WRBK_ACC][HIT_RESERVED] = 0
	Total_core_cache_stats_breakdown[L2_WRBK_ACC][MISS] = 0
	Total_core_cache_stats_breakdown[L2_WRBK_ACC][RESERVATION_FAIL] = 0
	Total_core_cache_stats_breakdown[L2_WRBK_ACC][SECTOR_MISS] = 0
	Total_core_cache_stats_breakdown[INST_ACC_R][HIT] = 332382
	Total_core_cache_stats_breakdown[INST_ACC_R][HIT_RESERVED] = 0
	Total_core_cache_stats_breakdown[INST_ACC_R][MISS] = 11521
	Total_core_cache_stats_breakdown[INST_ACC_R][RESERVATION_FAIL] = 72746
	Total_core_cache_stats_breakdown[INST_ACC_R][SECTOR_MISS] = 0
	Total_core_cache_stats_breakdown[L1_WR_ALLOC_R][HIT] = 0
	Total_core_cache_stats_breakdown[L1_WR_ALLOC_R][HIT_RESERVED] = 0
	Total_core_cache_stats_breakdown[L1_WR_ALLOC_R][MISS] = 0
	Total_core_cache_stats_breakdown[L1_WR_ALLOC_R][RESERVATION_FAIL] = 0
	Total_core_cache_stats_breakdown[L1_WR_ALLOC_R][SECTOR_MISS] = 0
	Total_core_cache_stats_breakdown[L2_WR_ALLOC_R][HIT] = 0
	Total_core_cache_stats_breakdown[L2_WR_ALLOC_R][HIT_RESERVED] = 0
	Total_core_cache_stats_breakdown[L2_WR_ALLOC_R][MISS] = 0
	Total_core_cache_stats_breakdown[L2_WR_ALLOC_R][RESERVATION_FAIL] = 0
	Total_core_cache_stats_breakdown[L2_WR_ALLOC_R][SECTOR_MISS] = 0
	Total_core_cache_stats_breakdown[GLOBAL_ACC_R][TOTAL_ACCESS] = 31267
	Total_core_cache_stats_breakdown[CONST_ACC_R][TOTAL_ACCESS] = 218848
	Total_core_cache_stats_breakdown[GLOBAL_ACC_W][TOTAL_ACCESS] = 7
	Total_core_cache_stats_breakdown[INST_ACC_R][TOTAL_ACCESS] = 343903

Total_core_cache_fail_stats:
	Total_core_cache_fail_stats_breakdown[CONST_ACC_R][MSHR_MERGE_ENRTY_FAIL] = 125340
	Total_core_cache_fail_stats_breakdown[INST_ACC_R][MSHR_MERGE_ENRTY_FAIL] = 72746
Shader 0 warp_id issue ditsribution:
warp_id:
0, 1, 2, 3, 4, 5, 6, 7, 8, 9, 10, 11, 12, 13, 14, 15, 16, 17, 18, 19, 20, 21, 22, 23, 24, 25, 26, 27, 28, 29, 30, 31, 32, 33, 34, 35, 36, 37, 38, 39, 40, 41, 42, 43, 44, 45, 46, 47, 48, 49, 50, 51, 52, 53, 54, 55, 56, 57, 58, 59, 60, 61, 62, 63, 
distro:
162, 80, 80, 80, 80, 80, 80, 80, 80, 80, 80, 80, 80, 80, 80, 80, 140, 140, 140, 140, 140, 140, 140, 140, 140, 140, 140, 140, 140, 140, 140, 140, 140, 140, 140, 140, 140, 140, 140, 140, 140, 140, 140, 140, 140, 140, 140, 140, 140, 140, 140, 140, 140, 140, 140, 140, 140, 140, 140, 140, 140, 140, 140, 140, 
gpgpu_n_tot_thrd_icount = 20008896
gpgpu_n_tot_w_icount = 625278
gpgpu_n_stall_shd_mem = 125340
gpgpu_n_mem_read_local = 0
gpgpu_n_mem_write_local = 0
gpgpu_n_mem_read_global = 31257
gpgpu_n_mem_write_global = 7
gpgpu_n_mem_texture = 0
gpgpu_n_mem_const = 80
gpgpu_n_load_insn  = 1000017
gpgpu_n_store_insn = 7
gpgpu_n_shmem_insn = 0
gpgpu_n_sstarr_insn = 0
gpgpu_n_tex_insn = 0
gpgpu_n_const_mem_insn = 0
gpgpu_n_param_mem_insn = 7003136
gpgpu_n_shmem_bkconflict = 0
gpgpu_n_cache_bkconflict = 0
gpgpu_n_intrawarp_mshr_merge = 0
gpgpu_n_cmem_portconflict = 125340
gpgpu_stall_shd_mem[c_mem][resource_stall] = 125340
gpgpu_stall_shd_mem[s_mem][bk_conf] = 0
gpgpu_stall_shd_mem[gl_mem][resource_stall] = 0
gpgpu_stall_shd_mem[gl_mem][coal_stall] = 0
gpgpu_stall_shd_mem[gl_mem][data_port_stall] = 0
gpu_reg_bank_conflict_stalls = 0
Warp Occupancy Distribution:
Stall:721168	W0_Idle:491545	W0_Scoreboard:736081	W1:82	W2:0	W3:0	W4:0	W5:0	W6:0	W7:0	W8:0	W9:0	W10:0	W11:0	W12:0	W13:0	W14:0	W15:0	W16:0	W17:0	W18:0	W19:0	W20:0	W21:0	W22:0	W23:0	W24:0	W25:0	W26:0	W27:0	W28:0	W29:0	W30:0	W31:0	W32:625196
single_issue_nums: WS0:156384	WS1:156302	WS2:156296	WS3:156296	
dual_issue_nums: WS0:0	WS1:0	WS2:0	WS3:0	
traffic_breakdown_coretomem[CONST_ACC_R] = 640 {8:80,}
traffic_breakdown_coretomem[GLOBAL_ACC_R] = 250056 {8:31257,}
traffic_breakdown_coretomem[GLOBAL_ACC_W] = 280 {40:7,}
traffic_breakdown_coretomem[INST_ACC_R] = 1928 {8:241,}
traffic_breakdown_memtocore[CONST_ACC_R] = 6400 {40:160,}
traffic_breakdown_memtocore[GLOBAL_ACC_R] = 1250280 {40:31257,}
traffic_breakdown_memtocore[GLOBAL_ACC_W] = 56 {8:7,}
traffic_breakdown_memtocore[INST_ACC_R] = 38560 {40:964,}
maxmflatency = 507 
max_icnt2mem_latency = 340 
maxmrqlatency = 134 
max_icnt2sh_latency = 48 
averagemflatency = 293 
avg_icnt2mem_latency = 18 
avg_mrq_latency = 10 
avg_icnt2sh_latency = 9 
mrq_lat_table:2838 	7023 	6650 	7269 	5853 	1446 	190 	1 	0 	0 	0 	0 	0 	0 	0 	0 	0 	0 	0 	0 	0 	0 	0 	0 	0 	0 	0 	0 	0 	0 	0 	0 	
dq_lat_table:0 	0 	0 	0 	0 	0 	0 	0 	0 	0 	0 	0 	0 	0 	0 	0 	0 	0 	0 	0 	0 	0 	0 	0 	0 	0 	0 	0 	0 	0 	0 	0 	
mf_lat_table:0 	0 	0 	0 	0 	0 	0 	12 	31412 	0 	0 	0 	0 	0 	0 	0 	0 	0 	0 	0 	0 	0 	0 	0 	0 	0 	0 	0 	0 	0 	0 	0 	
icnt2mem_lat_table:0 	0 	129 	21318 	9124 	850 	70 	93 	1 	0 	0 	0 	0 	0 	0 	0 	0 	0 	0 	0 	0 	0 	0 	0 	
icnt2sh_lat_table:0 	0 	13814 	15937 	1603 	70 	0 	0 	0 	0 	0 	0 	0 	0 	0 	0 	0 	0 	0 	0 	0 	0 	0 	0 	
mf_lat_pw_table:0 	0 	0 	0 	0 	0 	0 	0 	12 	0 	0 	0 	0 	0 	0 	0 	0 	0 	0 	0 	0 	0 	0 	0 	0 	0 	0 	0 	0 	0 	0 	0 	
maximum concurrent accesses to same row:
dram[0]:         4         0         0         0         0         0         0         0         0         0         0         0         0         0         0         0 
dram[1]:         8         0         0         0         0         0         0         0         0         0         0         0         0         0         0         0 
dram[2]:         0         0         0         0         0         0         0         0         0         0         0         0         0         0         0         0 
dram[3]:         0         0         0         0         0         0         0         0         0         0         0         0         0         0         0         0 
dram[4]:         0         0         0         0         0         0         0         0         0         0         0         0         0         0         0         0 
dram[5]:         0         0         0         0         0         0         0         0         0         0         0         0         0         0         0         0 
dram[6]:         0         0         0         0         0         0         0         0         0         0         0         0         0         0         0         0 
dram[7]:         0         0         0         0         0         0         0         0         0         0         0         0         0         0         0         0 
dram[8]:         0         0         0         0         0         0         0         0         0         0         0         0         0         0         0         0 
dram[9]:         0         0         0         0         0         0         0         0         0         0         0         0         0         0         0         0 
dram[10]:         0         0         0         0         0         0         0         0         0         0         0         0         0         0         0         0 
dram[11]:         0         0         0         0         0         0         0         0         0         0         0         0         0         0         0         0 
dram[12]:         0         0         0         0         0         0         0         0         0         0         0         0         0         0         0         0 
dram[13]:         0         0         0         0         0         0         0         0         0         0         0         0         0         0         0         0 
dram[14]:         0         0         0         0         0         0         0         0         0         0         0         0         0         0         0         0 
dram[15]:         0         0         0         0         0         0         0         0         0         0         0         0         0         0         0         0 
dram[16]:         0         0         0         0         0         0         0         0         0         0         0         0         0         0         0         0 
dram[17]:         0         0         0         0         0         0         0         0         0         0         0         0         0         0         0         0 
dram[18]:         0         0         0         0         0         0         0         0         0         0        40         0         0         0         0         0 
dram[19]:         0         0         0         0         0         0         0         0         0         0         0         0         0         0         0         0 
dram[20]:         0         0         0         0         0         0         0         0         0         0         0         0         0         0         0         0 
dram[21]:         0         0         0         0         0         0         0         0         0         0         0         0         0         0         0         0 
dram[22]:         0         0         0         0         0         0         0         0         0         0         0         0         0         0         0         0 
dram[23]:         0         0         0         0         0         0         0         0         0         0         0         0         0         0         0         0 
dram[24]:         0         0         0         0         0         0         0         0         0         0         0         0         0         0         0         0 
dram[25]:         0         0         0         0         0         0         0         0         0         0         0         0         0         0         0         0 
dram[26]:         0         0         0         0         0         0         0         0         0         0         0         0         0         0         0         0 
dram[27]:         0         0         0         0         0         0         0         0         0         0         0         0         0         0         0         0 
dram[28]:         0         0         0         0         0         0         0         0         0         0         0         0         0         0         0         0 
dram[29]:         0         0         0         0         0         0         0         0         0         0         0         0         0         0         0         0 
dram[30]:         0         0         0         0         0         0         0         0         0         0         0         0         0         0         0         0 
dram[31]:         0         0         0         0         0         0         0         0         0         0         0         0         0         0         0         0 
maximum service time to same row:
dram[0]:      3194      5596      5928      5911      6656      6885      7856      7928      2176      1983      2207      2075      3518      3549      4562      4492 
dram[1]:      3303      5540      5937      5886      6664      6890      7921      7881      2008      1991      1984      2051      3516      3552      4508      4437 
dram[2]:      5535      5483      5731      5937      6658      6885      7597      7965      2049      2031      2089      2147      3518      3515      4497      4578 
dram[3]:      5483      5495      5738      5899      6664      6878      7590      7970      2060      2043      2032      2104      3525      3522      4513      4585 
dram[4]:      5514      5452      5759      5942      6810      6798      7666      7657      2092      2077      2135      2193      3491      3528      4502      4591 
dram[5]:      5523      5439      5766      5898      6817      6806      7661      7666      2101      2085      2073      2145      3542      3491      4453      4603 
dram[6]:      5322      5367      5692      5945      6952      6926      7688      7570      2003      1984      2043      2091      3528      3530      4508      4566 
dram[7]:      5387      5329      5692      5892      6961      6947      7666      7578      2014      1996      1990      2056      3542      3518      4514      4581 
dram[8]:      5581      5458      5868      5949      6659      6969      7746      7779      1971      1990      2079      2055      3532      3525      4530      4581 
dram[9]:      5588      5464      5875      5896      6644      6979      7755      7798      1983      2003      1996      1976      3540      3534      4490      4562 
dram[10]:      5560      5406      5802      5598      6652      6955      7678      7676      1972      1991      2099      2029      3516      3547      4557      4595 
dram[11]:      5545      5336      5807      5605      6670      6938      7678      7674      1984      2000      2051      1978      3504      3554      4502      4603 
dram[12]:      5576      5560      5810      5954      6740      6757      7856      7657      1995      2014      2140      2051      3511      3542      4544      4615 
dram[13]:      5586      5511      5807      5903      6748      6717      7893      7662      2007      2022      2091      1995      3518      3525      4473      4621 
dram[14]:      5463      5581      5841      5956      6769      6942      7905      7712      2002      1996      2101      2079      3520      3534      4579      4573 
dram[15]:      5459      5589      5850      5904      6774      6950      7916      7715      2015      2012      2002      2003      3492      3542      4586      4554 
dram[16]:      5569      5630      5908      5607      6781      6961      7923      7633      1967      1988      2079      2055      3523      3551      4544      4579 
dram[17]:      5560      5565      5918      5615      6786      6966      7911      7637      1979      1996      2012      1972      3520      3539      4554      4518 
dram[18]:      5584      5464      5939      5654      6704      6651      7757      7638      1964      1983      2109      2020      3515      3534      4562      4597 
dram[19]:      5545      5536      5945      5649      6711      6652      7762      7645      1966      1993      2065      1967      3508      3539      4562      4545 
dram[20]:      5600      5351      5925      5713      6639      6899      7572      7953      2044      2061      2157      2101      3540      3544      4478      4497 
dram[21]:      5545      5358      5932      5733      6646      6966      7566      7958      2053      2070      2109      2043      3508      3501      4485      4496 
dram[22]:      5589      5494      5940      5726      6902      6954      7614      7703      1976      1995      2084      2060      3528      3530      4490      4564 
dram[23]:      5531      5427      5949      5708      6916      6962      7620      7666      1984      2002      2015      1979      3477      3534      4441      4585 
dram[24]:      5603      5560      5511      6029      6825      6973      7775      7933      1972      1991      2082      2029      3532      3540      4585      4579 
dram[25]:      5612      5572      5506      6038      6832      6914      7784      7881      1983      2000      2038      1976      3515      3530      4591      4586 
dram[26]:      5464      5495      5607      6045      6943      6753      7912      7950      2019      2039      2135      2079      3530      3534      4455      4545 
dram[27]:      5475      5459      5577      6053      6971      6752      7876      7960      2031      2048      2087      2020      3518      3549      4466      4542 
dram[28]:      5577      5446      5935      6062      6616      6695      7714      7645      2061      2077      2169      2118      3540      3554      4567      4586 
dram[29]:      5536      5184      5940      6069      6622      6700      7693      7656      2068      2085      2125      2056      3547      3549      4574      4598 
dram[30]:      5583      5607      5939      5731      6868      6748      7810      7674      1978      1996      2080      2034      3558      3546      4561      4574 
dram[31]:      5588      5598      5891      5743      6873      6759      7815      7656      1990      2003      2043      1983      3564      3510      4569      4583 
average row accesses per activate:
dram[0]: 15.000000 64.000000 64.000000 64.000000 64.000000 64.000000 56.000000 48.000000 48.000000 56.000000 64.000000 64.000000 64.000000 64.000000 64.000000 64.000000 
dram[1]: 36.000000 64.000000 64.000000 64.000000 64.000000 64.000000 56.000000 48.000000 48.000000 56.000000 64.000000 64.000000 64.000000 64.000000 64.000000 64.000000 
dram[2]: 64.000000 64.000000 64.000000 64.000000 64.000000 64.000000 56.000000 48.000000 48.000000 56.000000 64.000000 64.000000 64.000000 64.000000 64.000000 64.000000 
dram[3]: 64.000000 64.000000 64.000000 64.000000 64.000000 64.000000 56.000000 48.000000 48.000000 56.000000 64.000000 64.000000 64.000000 64.000000 64.000000 64.000000 
dram[4]: 64.000000 64.000000 64.000000 64.000000 64.000000 64.000000 56.000000 48.000000 48.000000 56.000000 64.000000 64.000000 64.000000 64.000000 64.000000 64.000000 
dram[5]: 64.000000 64.000000 64.000000 64.000000 64.000000 64.000000 56.000000 48.000000 48.000000 56.000000 64.000000 64.000000 64.000000 64.000000 64.000000 64.000000 
dram[6]: 64.000000 64.000000 64.000000 64.000000 64.000000 64.000000 56.000000 48.000000 48.000000 56.000000 64.000000 64.000000 64.000000 64.000000 64.000000 64.000000 
dram[7]: 64.000000 64.000000 64.000000 64.000000 64.000000 64.000000 56.000000 48.000000 48.000000 56.000000 64.000000 64.000000 64.000000 64.000000 64.000000 64.000000 
dram[8]: 64.000000 64.000000 64.000000 64.000000 64.000000 64.000000 56.000000 48.000000 56.000000 56.000000 64.000000 64.000000 64.000000 64.000000 64.000000 64.000000 
dram[9]: 64.000000 64.000000 64.000000 64.000000 64.000000 64.000000 56.000000 48.000000 56.000000 56.000000 64.000000 64.000000 64.000000 64.000000 64.000000 64.000000 
dram[10]: 64.000000 64.000000 64.000000 64.000000 64.000000 64.000000 50.000000 48.000000 56.000000 56.000000 64.000000 64.000000 64.000000 64.000000 64.000000 64.000000 
dram[11]: 64.000000 64.000000 64.000000 64.000000 64.000000 64.000000 48.000000 48.000000 56.000000 56.000000 64.000000 64.000000 64.000000 64.000000 64.000000 64.000000 
dram[12]: 64.000000 64.000000 64.000000 64.000000 64.000000 64.000000 48.000000 48.000000 56.000000 56.000000 64.000000 64.000000 64.000000 64.000000 64.000000 64.000000 
dram[13]: 64.000000 64.000000 64.000000 64.000000 64.000000 64.000000 48.000000 48.000000 56.000000 56.000000 64.000000 64.000000 64.000000 64.000000 64.000000 64.000000 
dram[14]: 64.000000 64.000000 64.000000 64.000000 64.000000 64.000000 48.000000 48.000000 56.000000 56.000000 64.000000 64.000000 64.000000 64.000000 64.000000 64.000000 
dram[15]: 64.000000 64.000000 64.000000 64.000000 64.000000 64.000000 48.000000 48.000000 56.000000 56.000000 64.000000 64.000000 64.000000 64.000000 64.000000 64.000000 
dram[16]: 64.000000 64.000000 64.000000 64.000000 64.000000 64.000000 48.000000 48.000000 56.000000 56.000000 64.000000 64.000000 64.000000 64.000000 64.000000 64.000000 
dram[17]: 64.000000 64.000000 64.000000 64.000000 64.000000 64.000000 48.000000 48.000000 56.000000 56.000000 64.000000 64.000000 64.000000 64.000000 64.000000 64.000000 
dram[18]: 64.000000 64.000000 64.000000 64.000000 64.000000 64.000000 48.000000 48.000000 56.000000 56.000000 21.666666 64.000000 64.000000 64.000000 64.000000 64.000000 
dram[19]: 64.000000 64.000000 64.000000 64.000000 64.000000 64.000000 48.000000 48.000000 56.000000 56.000000 64.000000 64.000000 64.000000 64.000000 64.000000 64.000000 
dram[20]: 64.000000 64.000000 64.000000 64.000000 64.000000 64.000000 48.000000 48.000000 56.000000 56.000000 64.000000 64.000000 64.000000 64.000000 64.000000 64.000000 
dram[21]: 64.000000 64.000000 64.000000 64.000000 64.000000 64.000000 48.000000 48.000000 56.000000 56.000000 64.000000 64.000000 64.000000 64.000000 64.000000 64.000000 
dram[22]: 64.000000 64.000000 64.000000 64.000000 64.000000 64.000000 48.000000 48.000000 56.000000 56.000000 64.000000 64.000000 64.000000 64.000000 64.000000 64.000000 
dram[23]: 64.000000 64.000000 64.000000 64.000000 64.000000 64.000000 48.000000 48.000000 56.000000 56.000000 64.000000 64.000000 64.000000 64.000000 64.000000 64.000000 
dram[24]: 64.000000 64.000000 64.000000 64.000000 64.000000 64.000000 48.000000 48.000000 56.000000 56.000000 64.000000 64.000000 64.000000 64.000000 64.000000 64.000000 
dram[25]: 64.000000 64.000000 64.000000 64.000000 64.000000 64.000000 48.000000 48.000000 56.000000 56.000000 64.000000 64.000000 64.000000 64.000000 64.000000 64.000000 
dram[26]: 64.000000 64.000000 64.000000 64.000000 64.000000 64.000000 48.000000 48.000000 56.000000 56.000000 64.000000 64.000000 64.000000 64.000000 64.000000 64.000000 
dram[27]: 64.000000 64.000000 64.000000 64.000000 64.000000 64.000000 48.000000 48.000000 56.000000 56.000000 64.000000 64.000000 64.000000 64.000000 64.000000 64.000000 
dram[28]: 64.000000 64.000000 64.000000 64.000000 64.000000 64.000000 48.000000 48.000000 56.000000 56.000000 64.000000 64.000000 64.000000 64.000000 64.000000 64.000000 
dram[29]: 64.000000 64.000000 64.000000 64.000000 64.000000 64.000000 48.000000 48.000000 56.000000 56.000000 64.000000 64.000000 64.000000 64.000000 64.000000 64.000000 
dram[30]: 64.000000 64.000000 64.000000 64.000000 64.000000 64.000000 48.000000 48.000000 56.000000 56.000000 64.000000 64.000000 64.000000 64.000000 64.000000 64.000000 
dram[31]: 64.000000 64.000000 64.000000 64.000000 64.000000 64.000000 48.000000 48.000000 56.000000 56.000000 64.000000 64.000000 64.000000 64.000000 64.000000 64.000000 
average row locality = 31270/519 = 60.250481
number of total memory accesses made:
dram[0]:         0         0         0         0         0         0         0         0         0         0         0         0         0         0         0         0 
dram[1]:         0         0         0         0         0         0         0         0         0         0         0         0         0         0         0         0 
dram[2]:         0         0         0         0         0         0         0         0         0         0         0         0         0         0         0         0 
dram[3]:         0         0         0         0         0         0         0         0         0         0         0         0         0         0         0         0 
dram[4]:         0         0         0         0         0         0         0         0         0         0         0         0         0         0         0         0 
dram[5]:         0         0         0         0         0         0         0         0         0         0         0         0         0         0         0         0 
dram[6]:         0         0         0         0         0         0         0         0         0         0         0         0         0         0         0         0 
dram[7]:         0         0         0         0         0         0         0         0         0         0         0         0         0         0         0         0 
dram[8]:         0         0         0         0         0         0         0         0         0         0         0         0         0         0         0         0 
dram[9]:         0         0         0         0         0         0         0         0         0         0         0         0         0         0         0         0 
dram[10]:         0         0         0         0         0         0         0         0         0         0         0         0         0         0         0         0 
dram[11]:         0         0         0         0         0         0         0         0         0         0         0         0         0         0         0         0 
dram[12]:         0         0         0         0         0         0         0         0         0         0         0         0         0         0         0         0 
dram[13]:         0         0         0         0         0         0         0         0         0         0         0         0         0         0         0         0 
dram[14]:         0         0         0         0         0         0         0         0         0         0         0         0         0         0         0         0 
dram[15]:         0         0         0         0         0         0         0         0         0         0         0         0         0         0         0         0 
dram[16]:         0         0         0         0         0         0         0         0         0         0         0         0         0         0         0         0 
dram[17]:         0         0         0         0         0         0         0         0         0         0         0         0         0         0         0         0 
dram[18]:         0         0         0         0         0         0         0         0         0         0         0         0         0         0         0         0 
dram[19]:         0         0         0         0         0         0         0         0         0         0         0         0         0         0         0         0 
dram[20]:         0         0         0         0         0         0         0         0         0         0         0         0         0         0         0         0 
dram[21]:         0         0         0         0         0         0         0         0         0         0         0         0         0         0         0         0 
dram[22]:         0         0         0         0         0         0         0         0         0         0         0         0         0         0         0         0 
dram[23]:         0         0         0         0         0         0         0         0         0         0         0         0         0         0         0         0 
dram[24]:         0         0         0         0         0         0         0         0         0         0         0         0         0         0         0         0 
dram[25]:         0         0         0         0         0         0         0         0         0         0         0         0         0         0         0         0 
dram[26]:         0         0         0         0         0         0         0         0         0         0         0         0         0         0         0         0 
dram[27]:         0         0         0         0         0         0         0         0         0         0         0         0         0         0         0         0 
dram[28]:         0         0         0         0         0         0         0         0         0         0         0         0         0         0         0         0 
dram[29]:         0         0         0         0         0         0         0         0         0         0         0         0         0         0         0         0 
dram[30]:         0         0         0         0         0         0         0         0         0         0         0         0         0         0         0         0 
dram[31]:         0         0         0         0         0         0         0         0         0         0         0         0         0         0         0         0 
total accesses: 0
min_bank_accesses = 0!
min_chip_accesses = 0!
number of total read accesses:
dram[0]:        75        64        64        64        64        64        56        48        48        56        64        64        64        64        64        64 
dram[1]:        72        64        64        64        64        64        56        48        48        56        64        64        64        64        64        64 
dram[2]:        64        64        64        64        64        64        56        48        48        56        64        64        64        64        64        64 
dram[3]:        64        64        64        64        64        64        56        48        48        56        64        64        64        64        64        64 
dram[4]:        64        64        64        64        64        64        56        48        48        56        64        64        64        64        64        64 
dram[5]:        64        64        64        64        64        64        56        48        48        56        64        64        64        64        64        64 
dram[6]:        64        64        64        64        64        64        56        48        48        56        64        64        64        64        64        64 
dram[7]:        64        64        64        64        64        64        56        48        48        56        64        64        64        64        64        64 
dram[8]:        64        64        64        64        64        64        56        48        56        56        64        64        64        64        64        64 
dram[9]:        64        64        64        64        64        64        56        48        56        56        64        64        64        64        64        64 
dram[10]:        64        64        64        64        64        64        50        48        56        56        64        64        64        64        64        64 
dram[11]:        64        64        64        64        64        64        48        48        56        56        64        64        64        64        64        64 
dram[12]:        64        64        64        64        64        64        48        48        56        56        64        64        64        64        64        64 
dram[13]:        64        64        64        64        64        64        48        48        56        56        64        64        64        64        64        64 
dram[14]:        64        64        64        64        64        64        48        48        56        56        64        64        64        64        64        64 
dram[15]:        64        64        64        64        64        64        48        48        56        56        64        64        64        64        64        64 
dram[16]:        64        64        64        64        64        64        48        48        56        56        64        64        64        64        64        64 
dram[17]:        64        64        64        64        64        64        48        48        56        56        64        64        64        64        64        64 
dram[18]:        64        64        64        64        64        64        48        48        56        56        65        64        64        64        64        64 
dram[19]:        64        64        64        64        64        64        48        48        56        56        64        64        64        64        64        64 
dram[20]:        64        64        64        64        64        64        48        48        56        56        64        64        64        64        64        64 
dram[21]:        64        64        64        64        64        64        48        48        56        56        64        64        64        64        64        64 
dram[22]:        64        64        64        64        64        64        48        48        56        56        64        64        64        64        64        64 
dram[23]:        64        64        64        64        64        64        48        48        56        56        64        64        64        64        64        64 
dram[24]:        64        64        64        64        64        64        48        48        56        56        64        64        64        64        64        64 
dram[25]:        64        64        64        64        64        64        48        48        56        56        64        64        64        64        64        64 
dram[26]:        64        64        64        64        64        64        48        48        56        56        64        64        64        64        64        64 
dram[27]:        64        64        64        64        64        64        48        48        56        56        64        64        64        64        64        64 
dram[28]:        64        64        64        64        64        64        48        48        56        56        64        64        64        64        64        64 
dram[29]:        64        64        64        64        64        64        48        48        56        56        64        64        64        64        64        64 
dram[30]:        64        64        64        64        64        64        48        48        56        56        64        64        64        64        64        64 
dram[31]:        64        64        64        64        64        64        48        48        56        56        64        64        64        64        64        64 
total dram reads = 31270
bank skew: 75/48 = 1.56
chip skew: 987/976 = 1.01
number of total write accesses:
dram[0]:         0         0         0         0         0         0         0         0         0         0         0         0         0         0         0         0 
dram[1]:         0         0         0         0         0         0         0         0         0         0         0         0         0         0         0         0 
dram[2]:         0         0         0         0         0         0         0         0         0         0         0         0         0         0         0         0 
dram[3]:         0         0         0         0         0         0         0         0         0         0         0         0         0         0         0         0 
dram[4]:         0         0         0         0         0         0         0         0         0         0         0         0         0         0         0         0 
dram[5]:         0         0         0         0         0         0         0         0         0         0         0         0         0         0         0         0 
dram[6]:         0         0         0         0         0         0         0         0         0         0         0         0         0         0         0         0 
dram[7]:         0         0         0         0         0         0         0         0         0         0         0         0         0         0         0         0 
dram[8]:         0         0         0         0         0         0         0         0         0         0         0         0         0         0         0         0 
dram[9]:         0         0         0         0         0         0         0         0         0         0         0         0         0         0         0         0 
dram[10]:         0         0         0         0         0         0         0         0         0         0         0         0         0         0         0         0 
dram[11]:         0         0         0         0         0         0         0         0         0         0         0         0         0         0         0         0 
dram[12]:         0         0         0         0         0         0         0         0         0         0         0         0         0         0         0         0 
dram[13]:         0         0         0         0         0         0         0         0         0         0         0         0         0         0         0         0 
dram[14]:         0         0         0         0         0         0         0         0         0         0         0         0         0         0         0         0 
dram[15]:         0         0         0         0         0         0         0         0         0         0         0         0         0         0         0         0 
dram[16]:         0         0         0         0         0         0         0         0         0         0         0         0         0         0         0         0 
dram[17]:         0         0         0         0         0         0         0         0         0         0         0         0         0         0         0         0 
dram[18]:         0         0         0         0         0         0         0         0         0         0         0         0         0         0         0         0 
dram[19]:         0         0         0         0         0         0         0         0         0         0         0         0         0         0         0         0 
dram[20]:         0         0         0         0         0         0         0         0         0         0         0         0         0         0         0         0 
dram[21]:         0         0         0         0         0         0         0         0         0         0         0         0         0         0         0         0 
dram[22]:         0         0         0         0         0         0         0         0         0         0         0         0         0         0         0         0 
dram[23]:         0         0         0         0         0         0         0         0         0         0         0         0         0         0         0         0 
dram[24]:         0         0         0         0         0         0         0         0         0         0         0         0         0         0         0         0 
dram[25]:         0         0         0         0         0         0         0         0         0         0         0         0         0         0         0         0 
dram[26]:         0         0         0         0         0         0         0         0         0         0         0         0         0         0         0         0 
[...]
WTRc_limit_alone = 72927 
RTWc_limit_alone = 388199 

Commands details: 
total_CMD = 465551 
n_nop = 263311 
Read = 102313 
Write = 0 
L2_Alloc = 0 
L2_WB = 55015 
n_act = 45587 
n_pre = 45571 
n_ref = 0 
n_req = 127544 
total_req = 157328 

Dual Bus Interface Util: 
issued_total_row = 91158 
issued_total_col = 157328 
Row_Bus_Util =  0.195807 
CoL_Bus_Util = 0.337939 
Either_Row_CoL_Bus_Util = 0.434410 
Issued_on_Two_Bus_Simul_Util = 0.099336 
issued_two_Eff = 0.228669 
queue_avg = 23.878366 


dram_util_bins: 0 0 0 0 0 0 0 0 0 0
dram_eff_bins: 0 0 0 0 0 0 0 0 0 0
mrqq: max=64 avg=23.8784
Memory Partition 29: 
Cache L2_bank_058:
MSHR contents

Cache L2_bank_059:
MSHR contents

In Dram Latency Queue (total = 0): 
DRAM[29]: 16 bks, busW=16 BL=2 CL=12, tRRD=3 tCCD=1, tRCD=12 tRAS=28 tRP=12 tRC=40
n_cmd=465551 n_nop=261788 n_act=46185 n_pre=46169 n_ref_event=0 n_req=128483 n_rd=102996 n_rd_L2_A=0 n_write=0 n_wr_bk=55444 bw_util=0.3403
n_activity=345884 dram_eff=0.4581
bk0: 6636a 293447i bk1: 6705a 285741i bk2: 6481a 304278i bk3: 6500a 301035i bk4: 6199a 312834i bk5: 6538a 305932i bk6: 6207a 300116i bk7: 6303a 299285i bk8: 6392a 290538i bk9: 6412a 295170i bk10: 6337a 294192i bk11: 6313a 293114i bk12: 6555a 285090i bk13: 6523a 285864i bk14: 6388a 292673i bk15: 6507a 292993i 

------------------------------------------------------------------------

Row_Buffer_Locality = 0.640536
Row_Buffer_Locality_read = 0.736077
Row_Buffer_Locality_write = 0.254443
Bank_Level_Parallism = 8.773814
Bank_Level_Parallism_Col = 5.892217
Bank_Level_Parallism_Ready = 2.295260
write_to_read_ratio_blp_rw_average = 0.514268
GrpLevelPara = 2.989044 

BW Util details:
bwutil = 0.340328 
total_CMD = 465551 
util_bw = 158440 
Wasted_Col = 146112 
Wasted_Row = 19708 
Idle = 141291 

BW Util Bottlenecks: 
RCDc_limit = 165430 
RCDWRc_limit = 77283 
WTRc_limit = 78687 
RTWc_limit = 417875 
CCDLc_limit = 85312 
rwq = 0 
CCDLc_limit_alone = 47071 
WTRc_limit_alone = 71758 
RTWc_limit_alone = 386563 

Commands details: 
total_CMD = 465551 
n_nop = 261788 
Read = 102996 
Write = 0 
L2_Alloc = 0 
L2_WB = 55444 
n_act = 46185 
n_pre = 46169 
n_ref = 0 
n_req = 128483 
total_req = 158440 

Dual Bus Interface Util: 
issued_total_row = 92354 
issued_total_col = 158440 
Row_Bus_Util =  0.198376 
CoL_Bus_Util = 0.340328 
Either_Row_CoL_Bus_Util = 0.437681 
Issued_on_Two_Bus_Simul_Util = 0.101022 
issued_two_Eff = 0.230812 
queue_avg = 24.136211 


dram_util_bins: 0 0 0 0 0 0 0 0 0 0
dram_eff_bins: 0 0 0 0 0 0 0 0 0 0
mrqq: max=64 avg=24.1362
Memory Partition 30: 
Cache L2_bank_060:
MSHR contents

Cache L2_bank_061:
MSHR contents

In Dram Latency Queue (total = 0): 
DRAM[30]: 16 bks, busW=16 BL=2 CL=12, tRRD=3 tCCD=1, tRCD=12 tRAS=28 tRP=12 tRC=40
n_cmd=465551 n_nop=261961 n_act=45796 n_pre=45780 n_ref_event=0 n_req=128372 n_rd=102795 n_rd_L2_A=0 n_write=0 n_wr_bk=55678 bw_util=0.3404
n_activity=345070 dram_eff=0.4592
bk0: 6654a 290996i bk1: 6679a 284570i bk2: 6403a 301362i bk3: 6496a 300617i bk4: 6324a 311036i bk5: 6302a 310306i bk6: 6303a 301735i bk7: 6237a 301858i bk8: 6296a 295431i bk9: 6509a 291663i bk10: 6379a 296857i bk11: 6377a 290996i bk12: 6471a 290904i bk13: 6586a 284440i bk14: 6394a 290776i bk15: 6385a 293853i 

------------------------------------------------------------------------

Row_Buffer_Locality = 0.643256
Row_Buffer_Locality_read = 0.738781
Row_Buffer_Locality_write = 0.259335
Bank_Level_Parallism = 8.787180
Bank_Level_Parallism_Col = 5.928708
Bank_Level_Parallism_Ready = 2.296555
write_to_read_ratio_blp_rw_average = 0.513795
GrpLevelPara = 3.002627 

BW Util details:
bwutil = 0.340399 
total_CMD = 465551 
util_bw = 158473 
Wasted_Col = 144845 
Wasted_Row = 19856 
Idle = 142377 

BW Util Bottlenecks: 
RCDc_limit = 163664 
RCDWRc_limit = 77951 
WTRc_limit = 81233 
RTWc_limit = 423259 
CCDLc_limit = 87562 
rwq = 0 
CCDLc_limit_alone = 47485 
WTRc_limit_alone = 73686 
RTWc_limit_alone = 390729 

Commands details: 
total_CMD = 465551 
n_nop = 261961 
Read = 102795 
Write = 0 
L2_Alloc = 0 
L2_WB = 55678 
n_act = 45796 
n_pre = 45780 
n_ref = 0 
n_req = 128372 
total_req = 158473 

Dual Bus Interface Util: 
issued_total_row = 91576 
issued_total_col = 158473 
Row_Bus_Util =  0.196705 
CoL_Bus_Util = 0.340399 
Either_Row_CoL_Bus_Util = 0.437310 
Issued_on_Two_Bus_Simul_Util = 0.099794 
issued_two_Eff = 0.228199 
queue_avg = 24.204651 


dram_util_bins: 0 0 0 0 0 0 0 0 0 0
dram_eff_bins: 0 0 0 0 0 0 0 0 0 0
mrqq: max=64 avg=24.2047
Memory Partition 31: 
Cache L2_bank_062:
MSHR contents

Cache L2_bank_063:
MSHR contents

In Dram Latency Queue (total = 0): 
DRAM[31]: 16 bks, busW=16 BL=2 CL=12, tRRD=3 tCCD=1, tRCD=12 tRAS=28 tRP=12 tRC=40
n_cmd=465551 n_nop=260499 n_act=46553 n_pre=46537 n_ref_event=0 n_req=129679 n_rd=104035 n_rd_L2_A=0 n_write=0 n_wr_bk=55694 bw_util=0.3431
n_activity=346412 dram_eff=0.4611
bk0: 6646a 283513i bk1: 6698a 287709i bk2: 6616a 296583i bk3: 6502a 297949i bk4: 6431a 303921i bk5: 6492a 304938i bk6: 6297a 299079i bk7: 6306a 300304i bk8: 6476a 287273i bk9: 6506a 287385i bk10: 6530a 288214i bk11: 6375a 290804i bk12: 6624a 282101i bk13: 6642a 283528i bk14: 6518a 286428i bk15: 6376a 285125i 

------------------------------------------------------------------------

Row_Buffer_Locality = 0.641014
Row_Buffer_Locality_read = 0.736435
Row_Buffer_Locality_write = 0.253900
Bank_Level_Parallism = 8.988696
Bank_Level_Parallism_Col = 6.043017
Bank_Level_Parallism_Ready = 2.304259
write_to_read_ratio_blp_rw_average = 0.520001
GrpLevelPara = 3.032894 

BW Util details:
bwutil = 0.343097 
total_CMD = 465551 
util_bw = 159729 
Wasted_Col = 145264 
Wasted_Row = 19152 
Idle = 141406 

BW Util Bottlenecks: 
RCDc_limit = 166296 
RCDWRc_limit = 77704 
WTRc_limit = 80630 
RTWc_limit = 442014 
CCDLc_limit = 90788 
rwq = 0 
CCDLc_limit_alone = 48963 
WTRc_limit_alone = 73327 
RTWc_limit_alone = 407492 

Commands details: 
total_CMD = 465551 
n_nop = 260499 
Read = 104035 
Write = 0 
L2_Alloc = 0 
L2_WB = 55694 
n_act = 46553 
n_pre = 46537 
n_ref = 0 
n_req = 129679 
total_req = 159729 

Dual Bus Interface Util: 
issued_total_row = 93090 
issued_total_col = 159729 
Row_Bus_Util =  0.199957 
CoL_Bus_Util = 0.343097 
Either_Row_CoL_Bus_Util = 0.440450 
Issued_on_Two_Bus_Simul_Util = 0.102603 
issued_two_Eff = 0.232951 
queue_avg = 25.196423 


dram_util_bins: 0 0 0 0 0 0 0 0 0 0
dram_eff_bins: 0 0 0 0 0 0 0 0 0 0
mrqq: max=64 avg=25.1964

========= L2 cache stats =========
L2_cache_bank[0]: Access = 186551, Miss = 92410, Miss_rate = 0.495, Pending_hits = 564, Reservation_fails = 553
L2_cache_bank[1]: Access = 186481, Miss = 92704, Miss_rate = 0.497, Pending_hits = 499, Reservation_fails = 0
L2_cache_bank[2]: Access = 186848, Miss = 92795, Miss_rate = 0.497, Pending_hits = 538, Reservation_fails = 1000
L2_cache_bank[3]: Access = 185674, Miss = 93033, Miss_rate = 0.501, Pending_hits = 487, Reservation_fails = 327
L2_cache_bank[4]: Access = 186812, Miss = 92734, Miss_rate = 0.496, Pending_hits = 560, Reservation_fails = 922
L2_cache_bank[5]: Access = 186047, Miss = 93009, Miss_rate = 0.500, Pending_hits = 521, Reservation_fails = 248
L2_cache_bank[6]: Access = 186186, Miss = 92677, Miss_rate = 0.498, Pending_hits = 589, Reservation_fails = 57
L2_cache_bank[7]: Access = 186042, Miss = 92661, Miss_rate = 0.498, Pending_hits = 545, Reservation_fails = 0
L2_cache_bank[8]: Access = 186051, Miss = 92264, Miss_rate = 0.496, Pending_hits = 537, Reservation_fails = 90
L2_cache_bank[9]: Access = 185503, Miss = 92330, Miss_rate = 0.498, Pending_hits = 509, Reservation_fails = 83
L2_cache_bank[10]: Access = 185569, Miss = 91632, Miss_rate = 0.494, Pending_hits = 530, Reservation_fails = 0
L2_cache_bank[11]: Access = 184516, Miss = 90904, Miss_rate = 0.493, Pending_hits = 507, Reservation_fails = 0
L2_cache_bank[12]: Access = 184138, Miss = 90090, Miss_rate = 0.489, Pending_hits = 517, Reservation_fails = 0
L2_cache_bank[13]: Access = 184261, Miss = 90869, Miss_rate = 0.493, Pending_hits = 519, Reservation_fails = 503
L2_cache_bank[14]: Access = 183809, Miss = 90265, Miss_rate = 0.491, Pending_hits = 577, Reservation_fails = 0
L2_cache_bank[15]: Access = 184471, Miss = 90702, Miss_rate = 0.492, Pending_hits = 571, Reservation_fails = 427
L2_cache_bank[16]: Access = 184515, Miss = 91202, Miss_rate = 0.494, Pending_hits = 620, Reservation_fails = 621
L2_cache_bank[17]: Access = 183918, Miss = 90135, Miss_rate = 0.490, Pending_hits = 544, Reservation_fails = 339
L2_cache_bank[18]: Access = 184143, Miss = 90534, Miss_rate = 0.492, Pending_hits = 529, Reservation_fails = 429
L2_cache_bank[19]: Access = 184246, Miss = 90113, Miss_rate = 0.489, Pending_hits = 539, Reservation_fails = 150
L2_cache_bank[20]: Access = 183639, Miss = 90357, Miss_rate = 0.492, Pending_hits = 572, Reservation_fails = 129
L2_cache_bank[21]: Access = 183893, Miss = 90064, Miss_rate = 0.490, Pending_hits = 623, Reservation_fails = 662
L2_cache_bank[22]: Access = 184733, Miss = 90749, Miss_rate = 0.491, Pending_hits = 537, Reservation_fails = 82
L2_cache_bank[23]: Access = 183946, Miss = 90406, Miss_rate = 0.491, Pending_hits = 585, Reservation_fails = 0
L2_cache_bank[24]: Access = 185816, Miss = 91982, Miss_rate = 0.495, Pending_hits = 546, Reservation_fails = 614
L2_cache_bank[25]: Access = 184193, Miss = 90696, Miss_rate = 0.492, Pending_hits = 583, Reservation_fails = 810
L2_cache_bank[26]: Access = 185245, Miss = 91934, Miss_rate = 0.496, Pending_hits = 595, Reservation_fails = 437
L2_cache_bank[27]: Access = 184048, Miss = 89938, Miss_rate = 0.489, Pending_hits = 594, Reservation_fails = 0
L2_cache_bank[28]: Access = 185651, Miss = 90302, Miss_rate = 0.486, Pending_hits = 494, Reservation_fails = 572
L2_cache_bank[29]: Access = 184934, Miss = 90746, Miss_rate = 0.491, Pending_hits = 489, Reservation_fails = 0
L2_cache_bank[30]: Access = 185497, Miss = 90498, Miss_rate = 0.488, Pending_hits = 559, Reservation_fails = 306
L2_cache_bank[31]: Access = 184974, Miss = 91423, Miss_rate = 0.494, Pending_hits = 571, Reservation_fails = 153
L2_cache_bank[32]: Access = 184299, Miss = 90371, Miss_rate = 0.490, Pending_hits = 532, Reservation_fails = 933
L2_cache_bank[33]: Access = 184256, Miss = 91031, Miss_rate = 0.494, Pending_hits = 531, Reservation_fails = 105
L2_cache_bank[34]: Access = 184745, Miss = 90851, Miss_rate = 0.492, Pending_hits = 429, Reservation_fails = 54
L2_cache_bank[35]: Access = 184350, Miss = 90746, Miss_rate = 0.492, Pending_hits = 446, Reservation_fails = 26
L2_cache_bank[36]: Access = 185073, Miss = 91118, Miss_rate = 0.492, Pending_hits = 479, Reservation_fails = 0
L2_cache_bank[37]: Access = 184860, Miss = 91237, Miss_rate = 0.494, Pending_hits = 503, Reservation_fails = 0
L2_cache_bank[38]: Access = 185461, Miss = 91827, Miss_rate = 0.495, Pending_hits = 569, Reservation_fails = 0
L2_cache_bank[39]: Access = 184619, Miss = 91356, Miss_rate = 0.495, Pending_hits = 597, Reservation_fails = 0
L2_cache_bank[40]: Access = 185345, Miss = 92017, Miss_rate = 0.496, Pending_hits = 526, Reservation_fails = 213
L2_cache_bank[41]: Access = 184185, Miss = 90653, Miss_rate = 0.492, Pending_hits = 539, Reservation_fails = 126
L2_cache_bank[42]: Access = 185471, Miss = 91940, Miss_rate = 0.496, Pending_hits = 617, Reservation_fails = 557
L2_cache_bank[43]: Access = 184368, Miss = 90598, Miss_rate = 0.491, Pending_hits = 546, Reservation_fails = 642
L2_cache_bank[44]: Access = 185656, Miss = 91817, Miss_rate = 0.495, Pending_hits = 554, Reservation_fails = 326
L2_cache_bank[45]: Access = 184479, Miss = 90851, Miss_rate = 0.492, Pending_hits = 530, Reservation_fails = 0
L2_cache_bank[46]: Access = 185960, Miss = 91702, Miss_rate = 0.493, Pending_hits = 611, Reservation_fails = 179
L2_cache_bank[47]: Access = 185407, Miss = 92399, Miss_rate = 0.498, Pending_hits = 667, Reservation_fails = 765
L2_cache_bank[48]: Access = 184758, Miss = 91431, Miss_rate = 0.495, Pending_hits = 536, Reservation_fails = 108
L2_cache_bank[49]: Access = 185696, Miss = 91392, Miss_rate = 0.492, Pending_hits = 514, Reservation_fails = 588
L2_cache_bank[50]: Access = 184766, Miss = 90717, Miss_rate = 0.491, Pending_hits = 486, Reservation_fails = 0
L2_cache_bank[51]: Access = 185269, Miss = 91019, Miss_rate = 0.491, Pending_hits = 486, Reservation_fails = 0
L2_cache_bank[52]: Access = 310699, Miss = 212260, Miss_rate = 0.683, Pending_hits = 570, Reservation_fails = 267
L2_cache_bank[53]: Access = 185052, Miss = 91622, Miss_rate = 0.495, Pending_hits = 596, Reservation_fails = 205
L2_cache_bank[54]: Access = 184690, Miss = 90388, Miss_rate = 0.489, Pending_hits = 575, Reservation_fails = 251
L2_cache_bank[55]: Access = 185263, Miss = 90928, Miss_rate = 0.491, Pending_hits = 560, Reservation_fails = 363
L2_cache_bank[56]: Access = 185277, Miss = 91173, Miss_rate = 0.492, Pending_hits = 501, Reservation_fails = 534
L2_cache_bank[57]: Access = 185280, Miss = 91403, Miss_rate = 0.493, Pending_hits = 509, Reservation_fails = 0
L2_cache_bank[58]: Access = 184867, Miss = 91679, Miss_rate = 0.496, Pending_hits = 451, Reservation_fails = 0
L2_cache_bank[59]: Access = 185220, Miss = 92150, Miss_rate = 0.498, Pending_hits = 461, Reservation_fails = 206
L2_cache_bank[60]: Access = 185390, Miss = 92335, Miss_rate = 0.498, Pending_hits = 490, Reservation_fails = 303
L2_cache_bank[61]: Access = 185510, Miss = 91724, Miss_rate = 0.494, Pending_hits = 539, Reservation_fails = 60
L2_cache_bank[62]: Access = 185457, Miss = 92558, Miss_rate = 0.499, Pending_hits = 592, Reservation_fails = 49
L2_cache_bank[63]: Access = 185785, Miss = 92624, Miss_rate = 0.499, Pending_hits = 554, Reservation_fails = 0
L2_total_cache_accesses = 11969863
L2_total_cache_misses = 5968075
L2_total_cache_miss_rate = 0.4986
L2_total_cache_pending_hits = 34646
L2_total_cache_reservation_fails = 16374
L2_total_cache_breakdown:
	L2_cache_stats_breakdown[GLOBAL_ACC_R][HIT] = 4796341
	L2_cache_stats_breakdown[GLOBAL_ACC_R][HIT_RESERVED] = 30930
	L2_cache_stats_breakdown[GLOBAL_ACC_R][MISS] = 1263482
	L2_cache_stats_breakdown[GLOBAL_ACC_R][RESERVATION_FAIL] = 15534
	L2_cache_stats_breakdown[GLOBAL_ACC_R][SECTOR_MISS] = 2004904
	L2_cache_stats_breakdown[LOCAL_ACC_R][HIT] = 0
	L2_cache_stats_breakdown[LOCAL_ACC_R][HIT_RESERVED] = 0
	L2_cache_stats_breakdown[LOCAL_ACC_R][MISS] = 0
	L2_cache_stats_breakdown[LOCAL_ACC_R][RESERVATION_FAIL] = 0
	L2_cache_stats_breakdown[LOCAL_ACC_R][SECTOR_MISS] = 0
	L2_cache_stats_breakdown[CONST_ACC_R][HIT] = 152
	L2_cache_stats_breakdown[CONST_ACC_R][HIT_RESERVED] = 6
	L2_cache_stats_breakdown[CONST_ACC_R][MISS] = 1
	L2_cache_stats_breakdown[CONST_ACC_R][RESERVATION_FAIL] = 163
	L2_cache_stats_breakdown[CONST_ACC_R][SECTOR_MISS] = 1
	L2_cache_stats_breakdown[TEXTURE_ACC_R][HIT] = 0
	L2_cache_stats_breakdown[TEXTURE_ACC_R][HIT_RESERVED] = 0
	L2_cache_stats_breakdown[TEXTURE_ACC_R][MISS] = 0
	L2_cache_stats_breakdown[TEXTURE_ACC_R][RESERVATION_FAIL] = 0
	L2_cache_stats_breakdown[TEXTURE_ACC_R][SECTOR_MISS] = 0
	L2_cache_stats_breakdown[GLOBAL_ACC_W][HIT] = 1168813
	L2_cache_stats_breakdown[GLOBAL_ACC_W][HIT_RESERVED] = 3650
	L2_cache_stats_breakdown[GLOBAL_ACC_W][MISS] = 672075
	L2_cache_stats_breakdown[GLOBAL_ACC_W][RESERVATION_FAIL] = 0
	L2_cache_stats_breakdown[GLOBAL_ACC_W][SECTOR_MISS] = 2027588
	L2_cache_stats_breakdown[LOCAL_ACC_W][HIT] = 0
	L2_cache_stats_breakdown[LOCAL_ACC_W][HIT_RESERVED] = 0
	L2_cache_stats_breakdown[LOCAL_ACC_W][MISS] = 0
	L2_cache_stats_breakdown[LOCAL_ACC_W][RESERVATION_FAIL] = 0
	L2_cache_stats_breakdown[LOCAL_ACC_W][SECTOR_MISS] = 0
	L2_cache_stats_breakdown[L1_WRBK_ACC][HIT] = 0
	L2_cache_stats_breakdown[L1_WRBK_ACC][HIT_RESERVED] = 0
	L2_cache_stats_breakdown[L1_WRBK_ACC][MISS] = 0
	L2_cache_stats_breakdown[L1_WRBK_ACC][RESERVATION_FAIL] = 0
	L2_cache_stats_breakdown[L1_WRBK_ACC][SECTOR_MISS] = 0
	L2_cache_stats_breakdown[L2_WRBK_ACC][HIT] = 0
	L2_cache_stats_breakdown[L2_WRBK_ACC][HIT_RESERVED] = 0
	L2_cache_stats_breakdown[L2_WRBK_ACC][MISS] = 0
	L2_cache_stats_breakdown[L2_WRBK_ACC][RESERVATION_FAIL] = 0
	L2_cache_stats_breakdown[L2_WRBK_ACC][SECTOR_MISS] = 0
	L2_cache_stats_breakdown[INST_ACC_R][HIT] = 1836
	L2_cache_stats_breakdown[INST_ACC_R][HIT_RESERVED] = 60
	L2_cache_stats_breakdown[INST_ACC_R][MISS] = 6
	L2_cache_stats_breakdown[INST_ACC_R][RESERVATION_FAIL] = 677
	L2_cache_stats_breakdown[INST_ACC_R][SECTOR_MISS] = 18
	L2_cache_stats_breakdown[L1_WR_ALLOC_R][HIT] = 0
	L2_cache_stats_breakdown[L1_WR_ALLOC_R][HIT_RESERVED] = 0
	L2_cache_stats_breakdown[L1_WR_ALLOC_R][MISS] = 0
	L2_cache_stats_breakdown[L1_WR_ALLOC_R][RESERVATION_FAIL] = 0
	L2_cache_stats_breakdown[L1_WR_ALLOC_R][SECTOR_MISS] = 0
	L2_cache_stats_breakdown[L2_WR_ALLOC_R][HIT] = 0
	L2_cache_stats_breakdown[L2_WR_ALLOC_R][HIT_RESERVED] = 0
	L2_cache_stats_breakdown[L2_WR_ALLOC_R][MISS] = 0
	L2_cache_stats_breakdown[L2_WR_ALLOC_R][RESERVATION_FAIL] = 0
	L2_cache_stats_breakdown[L2_WR_ALLOC_R][SECTOR_MISS] = 0
	L2_cache_stats_breakdown[GLOBAL_ACC_R][TOTAL_ACCESS] = 8095657
	L2_cache_stats_breakdown[CONST_ACC_R][TOTAL_ACCESS] = 160
	L2_cache_stats_breakdown[GLOBAL_ACC_W][TOTAL_ACCESS] = 3872126
	L2_cache_stats_breakdown[INST_ACC_R][TOTAL_ACCESS] = 1920
L2_total_cache_reservation_fail_breakdown:
	L2_cache_stats_fail_breakdown[GLOBAL_ACC_R][MSHR_MERGE_ENRTY_FAIL] = 15534
	L2_cache_stats_fail_breakdown[CONST_ACC_R][MSHR_MERGE_ENRTY_FAIL] = 163
	L2_cache_stats_fail_breakdown[INST_ACC_R][MSHR_MERGE_ENRTY_FAIL] = 677
L2_cache_data_port_util = 0.127
L2_cache_fill_port_util = 0.064

icnt_total_pkts_mem_to_simt=11969863
icnt_total_pkts_simt_to_mem=11968343
LD_mem_lat_dist  0 0 0 0 0 0 0 0 0 0 0 0 0 0 0 0 0 0 0 0 0 0 0 0 0 0 0
ST_mem_lat_dist  0 0 0 0 0 0 0 0 0 0 0 0 0 0 0 0 0 0 0 0 0 0 0 0 0 0 0
----------------------------Interconnect-DETAILS--------------------------------
Class 0:
Packet latency average = 14.8478
	minimum = 5
	maximum = 158
Network latency average = 9.20227
	minimum = 5
	maximum = 95
Slowest packet = 23875765
Flit latency average = 9.20227
	minimum = 5
	maximum = 95
Slowest flit = 23880784
Fragmentation average = 0
	minimum = 0
	maximum = 0
Injected packet rate average = 0.124089
	minimum = 0.100764 (at node 40)
	maximum = 0.165187 (at node 2)
Accepted packet rate average = 0.124089
	minimum = 0.100764 (at node 40)
	maximum = 0.165187 (at node 2)
Injected flit rate average = 0.124089
	minimum = 0.100764 (at node 40)
	maximum = 0.165187 (at node 2)
Accepted flit rate average= 0.124089
	minimum = 0.100764 (at node 40)
	maximum = 0.165187 (at node 2)
Injected packet length average = 1
Accepted packet length average = 1
Total in-flight flits = 0 (0 measured)
====== Overall Traffic Statistics ======
====== Traffic class 0 ======
Packet latency average = 172.072 (24 samples)
	minimum = 5 (24 samples)
	maximum = 1441.29 (24 samples)
Network latency average = 156.066 (24 samples)
	minimum = 5 (24 samples)
	maximum = 1181.83 (24 samples)
Flit latency average = 156.066 (24 samples)
	minimum = 5 (24 samples)
	maximum = 1181.83 (24 samples)
Fragmentation average = 0 (24 samples)
	minimum = 0 (24 samples)
	maximum = 0 (24 samples)
Injected packet rate average = 0.142736 (24 samples)
	minimum = 0.110284 (24 samples)
	maximum = 0.392275 (24 samples)
Accepted packet rate average = 0.142736 (24 samples)
	minimum = 0.110284 (24 samples)
	maximum = 0.388839 (24 samples)
Injected flit rate average = 0.142736 (24 samples)
	minimum = 0.110284 (24 samples)
	maximum = 0.392275 (24 samples)
Accepted flit rate average = 0.142736 (24 samples)
	minimum = 0.110284 (24 samples)
	maximum = 0.388839 (24 samples)
Injected packet size average = 1 (24 samples)
Accepted packet size average = 1 (24 samples)
Hops average = 1 (24 samples)
----------------------------END-of-Interconnect-DETAILS-------------------------


gpgpu_simulation_time = 0 days, 2 hrs, 18 min, 43 sec (8323 sec)
gpgpu_simulation_rate = 65062 (inst/sec)
gpgpu_simulation_rate = 95 (cycle/sec)
Kernel Executed 12 times
Result stored in result.txt
GPGPU-Sim: *** exit detected ***
