

        *** GPGPU-Sim Simulator Version 4.0.0  [build gpgpu-sim_git-commit-_modified_] ***


GPGPU-Sim PTX: simulation mode 0 (can change with PTX_SIM_MODE_FUNC environment variable:
               1=functional simulation only, 0=detailed performance simulator)
GPGPU-Sim PTX: overriding embedded ptx with ptx file (PTX_SIM_USE_PTX_FILE is set)
GPGPU-Sim: Configuration options:

-save_embedded_ptx                      0 # saves ptx files embedded in binary as <n>.ptx
-keep                                   0 # keep intermediate files created by GPGPU-Sim when interfacing with external programs
-gpgpu_ptx_save_converted_ptxplus                    0 # Saved converted ptxplus to a file
-gpgpu_occupancy_sm_number                   70 # The SM number to pass to ptxas when getting register usage for computing GPU occupancy. This parameter is required in the config.
-ptx_opcode_latency_int         4,13,4,5,145 # Opcode latencies for integers <ADD,MAX,MUL,MAD,DIV>Default 1,1,19,25,145
-ptx_opcode_latency_fp          4,13,4,5,39 # Opcode latencies for single precision floating points <ADD,MAX,MUL,MAD,DIV>Default 1,1,1,1,30
-ptx_opcode_latency_dp         8,19,8,8,330 # Opcode latencies for double precision floating points <ADD,MAX,MUL,MAD,DIV>Default 8,8,8,8,335
-ptx_opcode_latency_sfu                  100 # Opcode latencies for SFU instructionsDefault 8
-ptx_opcode_latency_tesnor                   64 # Opcode latencies for Tensor instructionsDefault 64
-ptx_opcode_initiation_int            2,2,2,2,8 # Opcode initiation intervals for integers <ADD,MAX,MUL,MAD,DIV>Default 1,1,4,4,32
-ptx_opcode_initiation_fp            2,2,2,2,4 # Opcode initiation intervals for single precision floating points <ADD,MAX,MUL,MAD,DIV>Default 1,1,1,1,5
-ptx_opcode_initiation_dp          4,4,4,4,130 # Opcode initiation intervals for double precision floating points <ADD,MAX,MUL,MAD,DIV>Default 8,8,8,8,130
-ptx_opcode_initiation_sfu                    8 # Opcode initiation intervals for sfu instructionsDefault 8
-ptx_opcode_initiation_tensor                   64 # Opcode initiation intervals for tensor instructionsDefault 64
-cdp_latency         7200,8000,100,12000,1600 # CDP API latency <cudaStreamCreateWithFlags, cudaGetParameterBufferV2_init_perWarp, cudaGetParameterBufferV2_perKernel, cudaLaunchDeviceV2_init_perWarp, cudaLaunchDevicV2_perKernel>Default 7200,8000,100,12000,1600
-network_mode                           1 # Interconnection network mode
-inter_config_file   config_volta_islip.icnt # Interconnection network config file
-inct_in_buffer_limit                   64 # in_buffer_limit
-inct_out_buffer_limit                   64 # out_buffer_limit
-inct_subnets                           2 # subnets
-gpgpu_ptx_use_cuobjdump                    1 # Use cuobjdump to extract ptx and sass from binaries
-gpgpu_experimental_lib_support                    0 # Try to extract code from cuda libraries [Broken because of unknown cudaGetExportTable]
-checkpoint_option                      0 #  checkpointing flag (0 = no checkpoint)
-checkpoint_kernel                      1 #  checkpointing during execution of which kernel (1- 1st kernel)
-checkpoint_CTA                         0 #  checkpointing after # of CTA (< less than total CTA)
-resume_option                          0 #  resume flag (0 = no resume)
-resume_kernel                          0 #  Resume from which kernel (1= 1st kernel)
-resume_CTA                             0 #  resume from which CTA 
-checkpoint_CTA_t                       0 #  resume from which CTA 
-checkpoint_insn_Y                      0 #  resume from which CTA 
-gpgpu_ptx_convert_to_ptxplus                    0 # Convert SASS (native ISA) to ptxplus and run ptxplus
-gpgpu_ptx_force_max_capability                   70 # Force maximum compute capability
-gpgpu_ptx_inst_debug_to_file                    0 # Dump executed instructions' debug information to file
-gpgpu_ptx_inst_debug_file       inst_debug.txt # Executed instructions' debug output file
-gpgpu_ptx_inst_debug_thread_uid                    1 # Thread UID for executed instructions' debug output
-gpgpu_simd_model                       1 # 1 = post-dominator
-gpgpu_shader_core_pipeline              2048:32 # shader core pipeline config, i.e., {<nthread>:<warpsize>}
-gpgpu_tex_cache:l1  N:16:128:24,L:R:m:N:L,T:128:4,128:2 # per-shader L1 texture cache  (READ-ONLY) config  {<nsets>:<bsize>:<assoc>,<rep>:<wr>:<alloc>:<wr_alloc>,<mshr>:<N>:<merge>,<mq>:<rf>}
-gpgpu_const_cache:l1 N:128:64:8,L:R:f:N:L,S:2:64,4 # per-shader L1 constant memory cache  (READ-ONLY) config  {<nsets>:<bsize>:<assoc>,<rep>:<wr>:<alloc>:<wr_alloc>,<mshr>:<N>:<merge>,<mq>} 
-gpgpu_cache:il1     N:64:128:16,L:R:f:N:L,S:2:48,4 # shader L1 instruction cache config  {<nsets>:<bsize>:<assoc>,<rep>:<wr>:<alloc>:<wr_alloc>,<mshr>:<N>:<merge>,<mq>} 
-gpgpu_cache:dl1     S:4:128:64,L:L:s:N:L,A:256:8,16:0,32 # per-shader L1 data cache config  {<nsets>:<bsize>:<assoc>,<rep>:<wr>:<alloc>:<wr_alloc>,<mshr>:<N>:<merge>,<mq> | none}
-l1_latency                            28 # L1 Hit Latency
-smem_latency                          19 # smem Latency
-gpgpu_cache:dl1PrefL1                 none # per-shader L1 data cache config  {<nsets>:<bsize>:<assoc>,<rep>:<wr>:<alloc>:<wr_alloc>,<mshr>:<N>:<merge>,<mq> | none}
-gpgpu_cache:dl1PrefShared                 none # per-shader L1 data cache config  {<nsets>:<bsize>:<assoc>,<rep>:<wr>:<alloc>:<wr_alloc>,<mshr>:<N>:<merge>,<mq> | none}
-gmem_skip_L1D                          0 # global memory access skip L1D cache (implements -Xptxas -dlcm=cg, default=no skip)
-gpgpu_perfect_mem                      0 # enable perfect memory mode (no cache miss)
-n_regfile_gating_group                    4 # group of lanes that should be read/written together)
-gpgpu_clock_gated_reg_file                    0 # enable clock gated reg file for power calculations
-gpgpu_clock_gated_lanes                    0 # enable clock gated lanes for power calculations
-gpgpu_shader_registers                65536 # Number of registers per shader core. Limits number of concurrent CTAs. (default 8192)
-gpgpu_registers_per_block                 8192 # Maximum number of registers per CTA. (default 8192)
-gpgpu_ignore_resources_limitation                    0 # gpgpu_ignore_resources_limitation (default 0)
-gpgpu_shader_cta                      32 # Maximum number of concurrent CTAs in shader (default 8)
-gpgpu_num_cta_barriers                   16 # Maximum number of named barriers per CTA (default 16)
-gpgpu_n_clusters                      16 # number of processing clusters
-gpgpu_n_cores_per_cluster                    2 # number of simd cores per cluster
-gpgpu_n_cluster_ejection_buffer_size                   32 # number of packets in ejection buffer
-gpgpu_n_ldst_response_buffer_size                    2 # number of response packets in ld/st unit ejection buffer
-gpgpu_shmem_per_block                49152 # Size of shared memory per thread block or CTA (default 48kB)
-gpgpu_shmem_size                   16384 # Size of shared memory per shader core (default 16kB)
-adaptive_volta_cache_config                    1 # adaptive_volta_cache_config
-gpgpu_shmem_size                   98304 # Size of shared memory per shader core (default 16kB)
-gpgpu_shmem_size_PrefL1                16384 # Size of shared memory per shader core (default 16kB)
-gpgpu_shmem_size_PrefShared                16384 # Size of shared memory per shader core (default 16kB)
-gpgpu_shmem_num_banks                   32 # Number of banks in the shared memory in each shader core (default 16)
-gpgpu_shmem_limited_broadcast                    0 # Limit shared memory to do one broadcast per cycle (default on)
-gpgpu_shmem_warp_parts                    1 # Number of portions a warp is divided into for shared memory bank conflict check 
-mem_unit_ports                         4 # The number of memory transactions allowed per core cycle
-gpgpu_shmem_warp_parts                    1 # Number of portions a warp is divided into for shared memory bank conflict check 
-gpgpu_warpdistro_shader                   -1 # Specify which shader core to collect the warp size distribution from
-gpgpu_warp_issue_shader                    0 # Specify which shader core to collect the warp issue distribution from
-gpgpu_local_mem_map                    1 # Mapping from local memory space address to simulated GPU physical address space (default = enabled)
-gpgpu_num_reg_banks                    8 # Number of register banks (default = 8)
-gpgpu_reg_bank_use_warp_id                    0 # Use warp ID in mapping registers to banks (default = off)
-sub_core_model                         1 # Sub Core Volta/Pascal model (default = off)
-enable_specialized_operand_collector                    0 # enable_specialized_operand_collector
-gpgpu_operand_collector_num_units_sp                    4 # number of collector units (default = 4)
-gpgpu_operand_collector_num_units_dp                    0 # number of collector units (default = 0)
-gpgpu_operand_collector_num_units_sfu                    4 # number of collector units (default = 4)
-gpgpu_operand_collector_num_units_int                    0 # number of collector units (default = 0)
-gpgpu_operand_collector_num_units_tensor_core                    4 # number of collector units (default = 4)
-gpgpu_operand_collector_num_units_mem                    2 # number of collector units (default = 2)
-gpgpu_operand_collector_num_units_gen                    8 # number of collector units (default = 0)
-gpgpu_operand_collector_num_in_ports_sp                    1 # number of collector unit in ports (default = 1)
-gpgpu_operand_collector_num_in_ports_dp                    0 # number of collector unit in ports (default = 0)
-gpgpu_operand_collector_num_in_ports_sfu                    1 # number of collector unit in ports (default = 1)
-gpgpu_operand_collector_num_in_ports_int                    0 # number of collector unit in ports (default = 0)
-gpgpu_operand_collector_num_in_ports_tensor_core                    1 # number of collector unit in ports (default = 1)
-gpgpu_operand_collector_num_in_ports_mem                    1 # number of collector unit in ports (default = 1)
-gpgpu_operand_collector_num_in_ports_gen                    8 # number of collector unit in ports (default = 0)
-gpgpu_operand_collector_num_out_ports_sp                    1 # number of collector unit in ports (default = 1)
-gpgpu_operand_collector_num_out_ports_dp                    0 # number of collector unit in ports (default = 0)
-gpgpu_operand_collector_num_out_ports_sfu                    1 # number of collector unit in ports (default = 1)
-gpgpu_operand_collector_num_out_ports_int                    0 # number of collector unit in ports (default = 0)
-gpgpu_operand_collector_num_out_ports_tensor_core                    1 # number of collector unit in ports (default = 1)
-gpgpu_operand_collector_num_out_ports_mem                    1 # number of collector unit in ports (default = 1)
-gpgpu_operand_collector_num_out_ports_gen                    8 # number of collector unit in ports (default = 0)
-gpgpu_coalesce_arch                   60 # Coalescing arch (GT200 = 13, Fermi = 20)
-gpgpu_num_sched_per_core                    4 # Number of warp schedulers per core
-gpgpu_max_insn_issue_per_warp                    1 # Max number of instructions that can be issued per warp in one cycle by scheduler (either 1 or 2)
-gpgpu_dual_issue_diff_exec_units                    1 # should dual issue use two different execution unit resources (Default = 1)
-gpgpu_simt_core_sim_order                    1 # Select the simulation order of cores in a cluster (0=Fix, 1=Round-Robin)
-gpgpu_pipeline_widths 4,4,4,4,4,4,4,4,4,4,8,4,4 # Pipeline widths ID_OC_SP,ID_OC_DP,ID_OC_INT,ID_OC_SFU,ID_OC_MEM,OC_EX_SP,OC_EX_DP,OC_EX_INT,OC_EX_SFU,OC_EX_MEM,EX_WB,ID_OC_TENSOR_CORE,OC_EX_TENSOR_CORE
-gpgpu_tensor_core_avail                    1 # Tensor Core Available (default=0)
-gpgpu_num_sp_units                     4 # Number of SP units (default=1)
-gpgpu_num_dp_units                     4 # Number of DP units (default=0)
-gpgpu_num_int_units                    4 # Number of INT units (default=0)
-gpgpu_num_sfu_units                    4 # Number of SF units (default=1)
-gpgpu_num_tensor_core_units                    4 # Number of tensor_core units (default=1)
-gpgpu_num_mem_units                    1 # Number if ldst units (default=1) WARNING: not hooked up to anything
-gpgpu_scheduler                      gto # Scheduler configuration: < lrr | gto | two_level_active > If two_level_active:<num_active_warps>:<inner_prioritization>:<outer_prioritization>For complete list of prioritization values see shader.h enum scheduler_prioritization_typeDefault: gto
-gpgpu_concurrent_kernel_sm                    0 # Support concurrent kernels on a SM (default = disabled)
-perf_sim_memcpy                        1 # Fill the L2 cache on memcpy
-gpgpu_dram_scheduler                    1 # 0 = fifo, 1 = FR-FCFS (defaul)
-gpgpu_dram_partition_queues          64:64:64:64 # i2$:$2d:d2$:$2i
-l2_ideal                               0 # Use a ideal L2 cache that always hit
-gpgpu_cache:dl2     S:32:128:24,L:B:m:L:L,A:192:4,32:0,32 # unified banked L2 data cache config  {<nsets>:<bsize>:<assoc>,<rep>:<wr>:<alloc>:<wr_alloc>,<mshr>:<N>:<merge>,<mq>}
-gpgpu_cache:dl2_texture_only                    0 # L2 cache used for texture only
-gpgpu_n_mem                           32 # number of memory modules (e.g. memory controllers) in gpu
-gpgpu_n_sub_partition_per_mchannel                    2 # number of memory subpartition in each memory module
-gpgpu_n_mem_per_ctrlr                    1 # number of memory chips per memory controller
-gpgpu_memlatency_stat                   14 # track and display latency statistics 0x2 enables MC, 0x4 enables queue logs
-gpgpu_frfcfs_dram_sched_queue_size                   64 # 0 = unlimited (default); # entries per chip
-gpgpu_dram_return_queue_size                  192 # 0 = unlimited (default); # entries per chip
-gpgpu_dram_buswidth                   16 # default = 4 bytes (8 bytes per cycle at DDR)
-gpgpu_dram_burst_length                    2 # Burst length of each DRAM request (default = 4 data bus cycle)
-dram_data_command_freq_ratio                    2 # Frequency ratio between DRAM data bus and command bus (default = 2 times, i.e. DDR)
-gpgpu_dram_timing_opt nbk=16:CCD=1:RRD=3:RCD=12:RAS=28:RP=12:RC=40: CL=12:WL=2:CDLR=3:WR=10:nbkgrp=4:CCDL=2:RTPL=3 # DRAM timing parameters = {nbk:tCCD:tRRD:tRCD:tRAS:tRP:tRC:CL:WL:tCDLR:tWR:nbkgrp:tCCDL:tRTPL}
-rop_latency                          120 # ROP queue latency (default 85)
-dram_latency                         100 # DRAM latency (default 30)
-dual_bus_interface                     1 # dual_bus_interface (default = 0) 
-dram_bnk_indexing_policy                    0 # dram_bnk_indexing_policy (0 = normal indexing, 1 = Xoring with the higher bits) (Default = 0)
-dram_bnkgrp_indexing_policy                    1 # dram_bnkgrp_indexing_policy (0 = take higher bits, 1 = take lower bits) (Default = 0)
-Seperate_Write_Queue_Enable                    0 # Seperate_Write_Queue_Enable
-Write_Queue_Size                32:28:16 # Write_Queue_Size
-Elimnate_rw_turnaround                    0 # elimnate_rw_turnaround i.e set tWTR and tRTW = 0
-icnt_flit_size                        40 # icnt_flit_size
-gpgpu_mem_addr_mapping dramid@8;00000000.00000000.00000000.00000000.0000RRRR.RRRRRRRR.RBBBCCCB.CCCSSSSS # mapping memory address to dram model {dramid@<start bit>;<memory address map>}
-gpgpu_mem_addr_test                    0 # run sweep test to check address mapping for aliased address
-gpgpu_mem_address_mask                    1 # 0 = old addressing mask, 1 = new addressing mask, 2 = new add. mask + flipped bank sel and chip sel bits
-memory_partition_indexing                    0 # 0 = no indexing, 1 = bitwise xoring, 2 = IPoly, 3 = custom indexing
-gpuwattch_xml_file  gpuwattch_gtx1080Ti_to_volta.xml # GPUWattch XML file
-power_simulation_enabled                    1 # Turn on power simulator (1=On, 0=Off)
-power_per_cycle_dump                    0 # Dump detailed power output each cycle
-power_trace_enabled                    0 # produce a file for the power trace (1=On, 0=Off)
-power_trace_zlevel                     6 # Compression level of the power trace output log (0=no comp, 9=highest)
-steady_power_levels_enabled                    0 # produce a file for the steady power levels (1=On, 0=Off)
-steady_state_definition                  8:4 # allowed deviation:number of samples
-gpgpu_max_cycle                        0 # terminates gpu simulation early (0 = no limit)
-gpgpu_max_insn                         0 # terminates gpu simulation early (0 = no limit)
-gpgpu_max_cta                          0 # terminates gpu simulation early (0 = no limit)
-gpgpu_runtime_stat                   500 # display runtime statistics such as dram utilization {<freq>:<flag>}
-liveness_message_freq                    1 # Minimum number of seconds between simulation liveness messages (0 = always print)
-gpgpu_compute_capability_major                    7 # Major compute capability version number
-gpgpu_compute_capability_minor                    0 # Minor compute capability version number
-gpgpu_flush_l1_cache                    1 # Flush L1 cache at the end of each kernel call
-gpgpu_flush_l2_cache                    0 # Flush L2 cache at the end of each kernel call
-gpgpu_deadlock_detect                    1 # Stop the simulation at deadlock (1=on (default), 0=off)
-gpgpu_ptx_instruction_classification                    0 # if enabled will classify ptx instruction types per kernel (Max 255 kernels now)
-gpgpu_ptx_sim_mode                     0 # Select between Performance (default) or Functional simulation (1)
-gpgpu_clock_domains 1455.0:1455.0:1455.0:850.0 # Clock Domain Frequencies in MhZ {<Core Clock>:<ICNT Clock>:<L2 Clock>:<DRAM Clock>}
-gpgpu_max_concurrent_kernel                    8 # maximum kernels that can run concurrently on GPU
-gpgpu_cflog_interval                    0 # Interval between each snapshot in control flow logger
-visualizer_enabled                     0 # Turn on visualizer output (1=On, 0=Off)
-visualizer_outputfile                 NULL # Specifies the output log file for visualizer
-visualizer_zlevel                      6 # Compression level of the visualizer output log (0=no comp, 9=highest)
-gpgpu_stack_size_limit                 1024 # GPU thread stack size
-gpgpu_heap_size_limit              8388608 # GPU malloc heap size 
-gpgpu_runtime_sync_depth_limit                    2 # GPU device runtime synchronize depth
-gpgpu_runtime_pending_launch_count_limit                 2048 # GPU device runtime pending launch count
-trace_enabled                          0 # Turn on traces
-trace_components                    none # comma seperated list of traces to enable. Complete list found in trace_streams.tup. Default none
-trace_sampling_core                    0 # The core which is printed using CORE_DPRINTF. Default 0
-trace_sampling_memory_partition                   -1 # The memory partition which is printed using MEMPART_DPRINTF. Default -1 (i.e. all)
-enable_ptx_file_line_stats                    1 # Turn on PTX source line statistic profiling. (1 = On)
-ptx_line_stats_filename gpgpu_inst_stats.txt # Output file for PTX source line statistics.
-gpgpu_kernel_launch_latency                    0 # Kernel launch latency in cycles. Default: 0
-gpgpu_cdp_enabled                      0 # Turn on CDP
DRAM Timing Options:
nbk                                    16 # number of banks
CCD                                     1 # column to column delay
RRD                                     3 # minimal delay between activation of rows in different banks
RCD                                    12 # row to column delay
RAS                                    28 # time needed to activate row
RP                                     12 # time needed to precharge (deactivate) row
RC                                     40 # row cycle time
CDLR                                    3 # switching from write to read (changes tWTR)
WR                                     10 # last data-in to row precharge
CL                                     12 # CAS latency
WL                                      2 # Write latency
nbkgrp                                  4 # number of bank groups
CCDL                                    2 # column to column delay between accesses to different bank groups
RTPL                                    3 # read to precharge delay between accesses to different bank groups
Total number of memory sub partition = 64
addr_dec_mask[CHIP]  = 0000000000001f00 	high:13 low:8
addr_dec_mask[BK]    = 00000000000e2000 	high:20 low:13
addr_dec_mask[ROW]   = 00000001fff00000 	high:33 low:20
addr_dec_mask[COL]   = 000000000001c0ff 	high:17 low:0
addr_dec_mask[BURST] = 000000000000001f 	high:5 low:0
sub_partition_id_mask = 0000000000002000
GPGPU-Sim uArch: clock freqs: 1455000000.000000:1455000000.000000:1455000000.000000:850000000.000000
GPGPU-Sim uArch: clock periods: 0.00000000068728522337:0.00000000068728522337:0.00000000068728522337:0.00000000117647058824
*** Initializing Memory Statistics ***
GPGPU-Sim uArch: interconnect node map (shaderID+MemID to icntID)
GPGPU-Sim uArch: Memory nodes ID start from index: 16
GPGPU-Sim uArch:    0   1   2   3   4   5   6   7
GPGPU-Sim uArch:    8   9  10  11  12  13  14  15
GPGPU-Sim uArch:   16  17  18  19  20  21  22  23
GPGPU-Sim uArch:   24  25  26  27  28  29  30  31
GPGPU-Sim uArch:   32  33  34  35  36  37  38  39
GPGPU-Sim uArch:   40  41  42  43  44  45  46  47
GPGPU-Sim uArch:   48  49  50  51  52  53  54  55
GPGPU-Sim uArch:   56  57  58  59  60  61  62  63
GPGPU-Sim uArch:   64  65  66  67  68  69  70  71
GPGPU-Sim uArch:   72  73  74  75  76  77  78  79
GPGPU-Sim uArch: interconnect node reverse map (icntID to shaderID+MemID)
GPGPU-Sim uArch: Memory nodes start from ID: 16
GPGPU-Sim uArch:    0   1   2   3   4   5   6   7
GPGPU-Sim uArch:    8   9  10  11  12  13  14  15
GPGPU-Sim uArch:   16  17  18  19  20  21  22  23
GPGPU-Sim uArch:   24  25  26  27  28  29  30  31
GPGPU-Sim uArch:   32  33  34  35  36  37  38  39
GPGPU-Sim uArch:   40  41  42  43  44  45  46  47
GPGPU-Sim uArch:   48  49  50  51  52  53  54  55
GPGPU-Sim uArch:   56  57  58  59  60  61  62  63
GPGPU-Sim uArch:   64  65  66  67  68  69  70  71
GPGPU-Sim uArch:   72  73  74  75  76  77  78  79
acfad532b36bf3d6bee3aca2b2068a7d  /home/seongguk/rodinia_3.1_dev/bin/linux/cuda/backprop
Extracting PTX file and ptxas options    1: backprop.1.sm_30.ptx -arch=sm_30
GPGPU-Sim uArch: performance model initialization complete.
self exe links to: /home/seongguk/rodinia_3.1_dev/bin/linux/cuda/backprop
self exe links to: /home/seongguk/rodinia_3.1_dev/bin/linux/cuda/backprop
9.1
GPGPU-Sim PTX: __cudaRegisterFatBinary, fat_cubin_handle = 1, filename=default
self exe links to: /home/seongguk/rodinia_3.1_dev/bin/linux/cuda/backprop
Running md5sum using "md5sum /home/seongguk/rodinia_3.1_dev/bin/linux/cuda/backprop "
self exe links to: /home/seongguk/rodinia_3.1_dev/bin/linux/cuda/backprop
Extracting specific PTX file named backprop.1.sm_30.ptx 
GPGPU-Sim PTX: __cudaRegisterFunction _Z24bpnn_adjust_weights_cudaPfiS_iS_S_ : hostFun 0x0x402350, fat_cubin_handle = 1
GPGPU-Sim PTX: Parsing backprop.1.sm_30.ptx
GPGPU-Sim PTX: allocating shared region for "_Z22bpnn_layerforward_CUDAPfS_S_S_ii$__cuda_local_var_17647_34_non_const_input_node" from 0x0 to 0x40 (shared memory space)
GPGPU-Sim PTX: allocating shared region for "_Z22bpnn_layerforward_CUDAPfS_S_S_ii$__cuda_local_var_17648_34_non_const_weight_matrix" from 0x80 to 0x480 (shared memory space)
GPGPU-Sim PTX: instruction assembly for function '_Z22bpnn_layerforward_CUDAPfS_S_S_ii'...   done.
GPGPU-Sim PTX: instruction assembly for function '_Z24bpnn_adjust_weights_cudaPfiS_iS_S_'...   done.
GPGPU-Sim PTX: finished parsing EMBEDDED .ptx file backprop.1.sm_30.ptx
GPGPU-Sim PTX: loading globals with explicit initializers... 
GPGPU-Sim PTX: finished loading globals (0 bytes total).
GPGPU-Sim PTX: loading constants with explicit initializers...  done.
GPGPU-Sim PTX: Loading PTXInfo from backprop.1.sm_30.ptx
GPGPU-Sim PTX: Kernel '_Z24bpnn_adjust_weights_cudaPfiS_iS_S_' : regs=21, lmem=0, smem=0, cmem=376
GPGPU-Sim PTX: Kernel '_Z22bpnn_layerforward_CUDAPfS_S_S_ii' : regs=14, lmem=0, smem=1088, cmem=360
GPGPU-Sim PTX: __cudaRegisterFunction _Z22bpnn_layerforward_CUDAPfS_S_S_ii : hostFun 0x0x402270, fat_cubin_handle = 1
Random number generator seed: 7
Input layer size : 65536
Starting training kernel
Performing GPU computation
GPGPU-Sim PTX: Setting up arguments for 8 bytes starting at 0x7ffe866dfdf8..
GPGPU-Sim PTX: Setting up arguments for 8 bytes starting at 0x7ffe866dfdf0..
GPGPU-Sim PTX: Setting up arguments for 8 bytes starting at 0x7ffe866dfde8..
GPGPU-Sim PTX: Setting up arguments for 8 bytes starting at 0x7ffe866dfde0..
GPGPU-Sim PTX: Setting up arguments for 4 bytes starting at 0x7ffe866dfddc..
GPGPU-Sim PTX: Setting up arguments for 4 bytes starting at 0x7ffe866dfdd8..

GPGPU-Sim PTX: cudaLaunch for 0x0x402270 (mode=performance simulation) on stream 0
GPGPU-Sim PTX: finding reconvergence points for '_Z22bpnn_layerforward_CUDAPfS_S_S_ii'...
GPGPU-Sim PTX: Finding dominators for '_Z22bpnn_layerforward_CUDAPfS_S_S_ii'...
GPGPU-Sim PTX: Finding immediate dominators for '_Z22bpnn_layerforward_CUDAPfS_S_S_ii'...
GPGPU-Sim PTX: Finding postdominators for '_Z22bpnn_layerforward_CUDAPfS_S_S_ii'...
GPGPU-Sim PTX: Finding immediate postdominators for '_Z22bpnn_layerforward_CUDAPfS_S_S_ii'...
GPGPU-Sim PTX: pre-decoding instructions for '_Z22bpnn_layerforward_CUDAPfS_S_S_ii'...
GPGPU-Sim PTX: reconvergence points for _Z22bpnn_layerforward_CUDAPfS_S_S_ii...
GPGPU-Sim PTX:  1 (potential) branch divergence @  PC=0x068 (backprop.1.sm_30.ptx:48) @%p2 bra BB0_2;
GPGPU-Sim PTX:    immediate post dominator      @  PC=0x098 (backprop.1.sm_30.ptx:57) cvta.to.global.u64 %rd1, %rd4;
GPGPU-Sim PTX:  2 (potential) branch divergence @  PC=0x150 (backprop.1.sm_30.ptx:80) @%p3 bra BB0_7;
GPGPU-Sim PTX:    immediate post dominator      @  PC=0x228 (backprop.1.sm_30.ptx:115) setp.eq.s32%p1, %r4, 0;
GPGPU-Sim PTX:  3 (potential) branch divergence @  PC=0x1a0 (backprop.1.sm_30.ptx:93) @%p4 bra BB0_6;
GPGPU-Sim PTX:    immediate post dominator      @  PC=0x200 (backprop.1.sm_30.ptx:108) bar.sync 0;
GPGPU-Sim PTX:  4 (potential) branch divergence @  PC=0x220 (backprop.1.sm_30.ptx:112) @%p5 bra BB0_4;
GPGPU-Sim PTX:    immediate post dominator      @  PC=0x228 (backprop.1.sm_30.ptx:115) setp.eq.s32%p1, %r4, 0;
GPGPU-Sim PTX:  5 (potential) branch divergence @  PC=0x248 (backprop.1.sm_30.ptx:119) @!%p1 bra BB0_9;
GPGPU-Sim PTX:    immediate post dominator      @  PC=0x290 (backprop.1.sm_30.ptx:132) ret;
GPGPU-Sim PTX:  6 (potential) branch divergence @  PC=0x250 (backprop.1.sm_30.ptx:120) bra.uni BB0_8;
GPGPU-Sim PTX:    immediate post dominator      @  PC=0x258 (backprop.1.sm_30.ptx:123) cvta.to.global.u64 %rd10, %rd5;
GPGPU-Sim PTX: ... end of reconvergence points for _Z22bpnn_layerforward_CUDAPfS_S_S_ii
GPGPU-Sim PTX: ... done pre-decoding instructions for '_Z22bpnn_layerforward_CUDAPfS_S_S_ii'.
GPGPU-Sim PTX: pushing kernel '_Z22bpnn_layerforward_CUDAPfS_S_S_ii' to stream 0, gridDim= (1,4096,1) blockDim = (16,16,1) 
GPGPU-Sim uArch: Shader 0 bind to kernel 1 '_Z22bpnn_layerforward_CUDAPfS_S_S_ii'
GPGPU-Sim uArch: CTA/core = 8, limited by: threads
GPGPU-Sim: Reconfigure L1 cache in Volta Archi to 112KB
GPGPU-Sim uArch: Shader 2 bind to kernel 1 '_Z22bpnn_layerforward_CUDAPfS_S_S_ii'
GPGPU-Sim uArch: Shader 4 bind to kernel 1 '_Z22bpnn_layerforward_CUDAPfS_S_S_ii'
GPGPU-Sim uArch: Shader 6 bind to kernel 1 '_Z22bpnn_layerforward_CUDAPfS_S_S_ii'
GPGPU-Sim uArch: Shader 8 bind to kernel 1 '_Z22bpnn_layerforward_CUDAPfS_S_S_ii'
GPGPU-Sim uArch: Shader 10 bind to kernel 1 '_Z22bpnn_layerforward_CUDAPfS_S_S_ii'
GPGPU-Sim uArch: Shader 12 bind to kernel 1 '_Z22bpnn_layerforward_CUDAPfS_S_S_ii'
GPGPU-Sim uArch: Shader 14 bind to kernel 1 '_Z22bpnn_layerforward_CUDAPfS_S_S_ii'
GPGPU-Sim uArch: Shader 16 bind to kernel 1 '_Z22bpnn_layerforward_CUDAPfS_S_S_ii'
GPGPU-Sim uArch: Shader 18 bind to kernel 1 '_Z22bpnn_layerforward_CUDAPfS_S_S_ii'
GPGPU-Sim uArch: Shader 20 bind to kernel 1 '_Z22bpnn_layerforward_CUDAPfS_S_S_ii'
GPGPU-Sim uArch: Shader 22 bind to kernel 1 '_Z22bpnn_layerforward_CUDAPfS_S_S_ii'
GPGPU-Sim uArch: Shader 24 bind to kernel 1 '_Z22bpnn_layerforward_CUDAPfS_S_S_ii'
GPGPU-Sim uArch: Shader 26 bind to kernel 1 '_Z22bpnn_layerforward_CUDAPfS_S_S_ii'
GPGPU-Sim uArch: Shader 28 bind to kernel 1 '_Z22bpnn_layerforward_CUDAPfS_S_S_ii'
GPGPU-Sim uArch: Shader 30 bind to kernel 1 '_Z22bpnn_layerforward_CUDAPfS_S_S_ii'
GPGPU-Sim uArch: Shader 1 bind to kernel 1 '_Z22bpnn_layerforward_CUDAPfS_S_S_ii'
GPGPU-Sim uArch: Shader 3 bind to kernel 1 '_Z22bpnn_layerforward_CUDAPfS_S_S_ii'
GPGPU-Sim uArch: Shader 5 bind to kernel 1 '_Z22bpnn_layerforward_CUDAPfS_S_S_ii'
GPGPU-Sim uArch: Shader 7 bind to kernel 1 '_Z22bpnn_layerforward_CUDAPfS_S_S_ii'
GPGPU-Sim uArch: Shader 9 bind to kernel 1 '_Z22bpnn_layerforward_CUDAPfS_S_S_ii'
GPGPU-Sim uArch: Shader 11 bind to kernel 1 '_Z22bpnn_layerforward_CUDAPfS_S_S_ii'
GPGPU-Sim uArch: Shader 13 bind to kernel 1 '_Z22bpnn_layerforward_CUDAPfS_S_S_ii'
GPGPU-Sim uArch: Shader 15 bind to kernel 1 '_Z22bpnn_layerforward_CUDAPfS_S_S_ii'
GPGPU-Sim uArch: Shader 17 bind to kernel 1 '_Z22bpnn_layerforward_CUDAPfS_S_S_ii'
GPGPU-Sim uArch: Shader 19 bind to kernel 1 '_Z22bpnn_layerforward_CUDAPfS_S_S_ii'
GPGPU-Sim uArch: Shader 21 bind to kernel 1 '_Z22bpnn_layerforward_CUDAPfS_S_S_ii'
GPGPU-Sim uArch: Shader 23 bind to kernel 1 '_Z22bpnn_layerforward_CUDAPfS_S_S_ii'
GPGPU-Sim uArch: Shader 25 bind to kernel 1 '_Z22bpnn_layerforward_CUDAPfS_S_S_ii'
GPGPU-Sim uArch: Shader 27 bind to kernel 1 '_Z22bpnn_layerforward_CUDAPfS_S_S_ii'
GPGPU-Sim uArch: Shader 29 bind to kernel 1 '_Z22bpnn_layerforward_CUDAPfS_S_S_ii'
GPGPU-Sim uArch: Shader 31 bind to kernel 1 '_Z22bpnn_layerforward_CUDAPfS_S_S_ii'
Destroy streams for kernel 1: size 0
kernel_name = _Z22bpnn_layerforward_CUDAPfS_S_S_ii 
kernel_launch_uid = 1 
gpu_sim_cycle = 71569
gpu_sim_insn = 104923136
gpu_ipc =    1466.0416
gpu_tot_sim_cycle = 71569
gpu_tot_sim_insn = 104923136
gpu_tot_ipc =    1466.0416
gpu_tot_issued_cta = 4096
gpu_occupancy = 98.9414% 
gpu_tot_occupancy = 98.9414% 
max_total_param_size = 0
gpu_stall_dramfull = 314
gpu_stall_icnt2sh    = 0
partiton_level_parallism =       4.9168
partiton_level_parallism_total  =       4.9168
partiton_level_parallism_util =       7.7113
partiton_level_parallism_util_total  =       7.7113
L2_BW  =     229.3215 GB/Sec
L2_BW_total  =     229.3215 GB/Sec
gpu_total_sim_rate=252826

========= Core cache stats =========
L1I_cache:
	L1I_total_cache_accesses = 2203648
	L1I_total_cache_misses = 8960
	L1I_total_cache_miss_rate = 0.0041
	L1I_total_cache_pending_hits = 0
	L1I_total_cache_reservation_fails = 40170
L1D_cache:
	L1D_cache_core[0]: Access = 25088, Miss = 16143, Miss_rate = 0.643, Pending_hits = 0, Reservation_fails = 367
	L1D_cache_core[1]: Access = 25088, Miss = 16145, Miss_rate = 0.644, Pending_hits = 0, Reservation_fails = 329
	L1D_cache_core[2]: Access = 25088, Miss = 16151, Miss_rate = 0.644, Pending_hits = 0, Reservation_fails = 108
	L1D_cache_core[3]: Access = 25088, Miss = 16152, Miss_rate = 0.644, Pending_hits = 0, Reservation_fails = 376
	L1D_cache_core[4]: Access = 25088, Miss = 16148, Miss_rate = 0.644, Pending_hits = 0, Reservation_fails = 112
	L1D_cache_core[5]: Access = 25088, Miss = 16147, Miss_rate = 0.644, Pending_hits = 0, Reservation_fails = 381
	L1D_cache_core[6]: Access = 25088, Miss = 16147, Miss_rate = 0.644, Pending_hits = 0, Reservation_fails = 133
	L1D_cache_core[7]: Access = 25088, Miss = 16145, Miss_rate = 0.644, Pending_hits = 0, Reservation_fails = 203
	L1D_cache_core[8]: Access = 25088, Miss = 16150, Miss_rate = 0.644, Pending_hits = 0, Reservation_fails = 288
	L1D_cache_core[9]: Access = 25088, Miss = 16145, Miss_rate = 0.644, Pending_hits = 0, Reservation_fails = 59
	L1D_cache_core[10]: Access = 25088, Miss = 16145, Miss_rate = 0.644, Pending_hits = 0, Reservation_fails = 262
	L1D_cache_core[11]: Access = 25088, Miss = 16141, Miss_rate = 0.643, Pending_hits = 0, Reservation_fails = 252
	L1D_cache_core[12]: Access = 25088, Miss = 16146, Miss_rate = 0.644, Pending_hits = 0, Reservation_fails = 237
	L1D_cache_core[13]: Access = 25088, Miss = 16146, Miss_rate = 0.644, Pending_hits = 0, Reservation_fails = 159
	L1D_cache_core[14]: Access = 25088, Miss = 16145, Miss_rate = 0.644, Pending_hits = 0, Reservation_fails = 206
	L1D_cache_core[15]: Access = 25088, Miss = 16147, Miss_rate = 0.644, Pending_hits = 0, Reservation_fails = 214
	L1D_total_cache_accesses = 401408
	L1D_total_cache_misses = 258343
	L1D_total_cache_miss_rate = 0.6436
	L1D_total_cache_pending_hits = 0
	L1D_total_cache_reservation_fails = 3686
	L1D_cache_data_port_util = 0.016
	L1D_cache_fill_port_util = 0.017
L1C_cache:
	L1C_total_cache_accesses = 131072
	L1C_total_cache_misses = 2048
	L1C_total_cache_miss_rate = 0.0156
	L1C_total_cache_pending_hits = 0
	L1C_total_cache_reservation_fails = 31516
L1T_cache:
	L1T_total_cache_accesses = 0
	L1T_total_cache_misses = 0
	L1T_total_cache_pending_hits = 0
	L1T_total_cache_reservation_fails = 0

Total_core_cache_stats:
	Total_core_cache_stats_breakdown[GLOBAL_ACC_R][HIT] = 0
	Total_core_cache_stats_breakdown[GLOBAL_ACC_R][HIT_RESERVED] = 0
	Total_core_cache_stats_breakdown[GLOBAL_ACC_R][MISS] = 107360
	Total_core_cache_stats_breakdown[GLOBAL_ACC_R][RESERVATION_FAIL] = 3686
	Total_core_cache_stats_breakdown[GLOBAL_ACC_R][SECTOR_MISS] = 97440
	Total_core_cache_stats_breakdown[LOCAL_ACC_R][HIT] = 0
	Total_core_cache_stats_breakdown[LOCAL_ACC_R][HIT_RESERVED] = 0
	Total_core_cache_stats_breakdown[LOCAL_ACC_R][MISS] = 0
	Total_core_cache_stats_breakdown[LOCAL_ACC_R][RESERVATION_FAIL] = 0
	Total_core_cache_stats_breakdown[LOCAL_ACC_R][SECTOR_MISS] = 0
	Total_core_cache_stats_breakdown[CONST_ACC_R][HIT] = 129024
	Total_core_cache_stats_breakdown[CONST_ACC_R][HIT_RESERVED] = 0
	Total_core_cache_stats_breakdown[CONST_ACC_R][MISS] = 2048
	Total_core_cache_stats_breakdown[CONST_ACC_R][RESERVATION_FAIL] = 31516
	Total_core_cache_stats_breakdown[CONST_ACC_R][SECTOR_MISS] = 0
	Total_core_cache_stats_breakdown[TEXTURE_ACC_R][HIT] = 0
	Total_core_cache_stats_breakdown[TEXTURE_ACC_R][HIT_RESERVED] = 0
	Total_core_cache_stats_breakdown[TEXTURE_ACC_R][MISS] = 0
	Total_core_cache_stats_breakdown[TEXTURE_ACC_R][RESERVATION_FAIL] = 0
	Total_core_cache_stats_breakdown[TEXTURE_ACC_R][SECTOR_MISS] = 0
	Total_core_cache_stats_breakdown[GLOBAL_ACC_W][HIT] = 143065
	Total_core_cache_stats_breakdown[GLOBAL_ACC_W][HIT_RESERVED] = 0
	Total_core_cache_stats_breakdown[GLOBAL_ACC_W][MISS] = 51148
	Total_core_cache_stats_breakdown[GLOBAL_ACC_W][RESERVATION_FAIL] = 0
	Total_core_cache_stats_breakdown[GLOBAL_ACC_W][SECTOR_MISS] = 2395
	Total_core_cache_stats_breakdown[LOCAL_ACC_W][HIT] = 0
	Total_core_cache_stats_breakdown[LOCAL_ACC_W][HIT_RESERVED] = 0
	Total_core_cache_stats_breakdown[LOCAL_ACC_W][MISS] = 0
	Total_core_cache_stats_breakdown[LOCAL_ACC_W][RESERVATION_FAIL] = 0
	Total_core_cache_stats_breakdown[LOCAL_ACC_W][SECTOR_MISS] = 0
	Total_core_cache_stats_breakdown[L1_WRBK_ACC][HIT] = 0
	Total_core_cache_stats_breakdown[L1_WRBK_ACC][HIT_RESERVED] = 0
	Total_core_cache_stats_breakdown[L1_WRBK_ACC][MISS] = 0
	Total_core_cache_stats_breakdown[L1_WRBK_ACC][RESERVATION_FAIL] = 0
	Total_core_cache_stats_breakdown[L1_WRBK_ACC][SECTOR_MISS] = 0
	Total_core_cache_stats_breakdown[L2_WRBK_ACC][HIT] = 0
	Total_core_cache_stats_breakdown[L2_WRBK_ACC][HIT_RESERVED] = 0
	Total_core_cache_stats_breakdown[L2_WRBK_ACC][MISS] = 0
	Total_core_cache_stats_breakdown[L2_WRBK_ACC][RESERVATION_FAIL] = 0
	Total_core_cache_stats_breakdown[L2_WRBK_ACC][SECTOR_MISS] = 0
	Total_core_cache_stats_breakdown[INST_ACC_R][HIT] = 2194688
	Total_core_cache_stats_breakdown[INST_ACC_R][HIT_RESERVED] = 0
	Total_core_cache_stats_breakdown[INST_ACC_R][MISS] = 8960
	Total_core_cache_stats_breakdown[INST_ACC_R][RESERVATION_FAIL] = 40170
	Total_core_cache_stats_breakdown[INST_ACC_R][SECTOR_MISS] = 0
	Total_core_cache_stats_breakdown[L1_WR_ALLOC_R][HIT] = 0
	Total_core_cache_stats_breakdown[L1_WR_ALLOC_R][HIT_RESERVED] = 0
	Total_core_cache_stats_breakdown[L1_WR_ALLOC_R][MISS] = 0
	Total_core_cache_stats_breakdown[L1_WR_ALLOC_R][RESERVATION_FAIL] = 0
	Total_core_cache_stats_breakdown[L1_WR_ALLOC_R][SECTOR_MISS] = 0
	Total_core_cache_stats_breakdown[L2_WR_ALLOC_R][HIT] = 0
	Total_core_cache_stats_breakdown[L2_WR_ALLOC_R][HIT_RESERVED] = 0
	Total_core_cache_stats_breakdown[L2_WR_ALLOC_R][MISS] = 0
	Total_core_cache_stats_breakdown[L2_WR_ALLOC_R][RESERVATION_FAIL] = 0
	Total_core_cache_stats_breakdown[L2_WR_ALLOC_R][SECTOR_MISS] = 0
	Total_core_cache_stats_breakdown[GLOBAL_ACC_R][TOTAL_ACCESS] = 204800
	Total_core_cache_stats_breakdown[CONST_ACC_R][TOTAL_ACCESS] = 131072
	Total_core_cache_stats_breakdown[GLOBAL_ACC_W][TOTAL_ACCESS] = 196608
	Total_core_cache_stats_breakdown[INST_ACC_R][TOTAL_ACCESS] = 2203648

Total_core_cache_fail_stats:
	Total_core_cache_fail_stats_breakdown[GLOBAL_ACC_R][MISS_QUEUE_FULL] = 3686
	Total_core_cache_fail_stats_breakdown[CONST_ACC_R][MSHR_MERGE_ENRTY_FAIL] = 31516
	Total_core_cache_fail_stats_breakdown[INST_ACC_R][MSHR_MERGE_ENRTY_FAIL] = 40170
Shader 0 warp_id issue ditsribution:
warp_id:
0, 1, 2, 3, 4, 5, 6, 7, 8, 9, 10, 11, 12, 13, 14, 15, 16, 17, 18, 19, 20, 21, 22, 23, 24, 25, 26, 27, 28, 29, 30, 31, 32, 33, 34, 35, 36, 37, 38, 39, 40, 41, 42, 43, 44, 45, 46, 47, 48, 49, 50, 51, 52, 53, 54, 55, 56, 57, 58, 59, 60, 61, 62, 63, 
distro:
2384, 1856, 2032, 1856, 2208, 1856, 2032, 1856, 2384, 1856, 2032, 1856, 2208, 1856, 2032, 1856, 2384, 1856, 2032, 1856, 2208, 1856, 2032, 1856, 2384, 1856, 2032, 1856, 2208, 1856, 2032, 1856, 2384, 1856, 2032, 1856, 2208, 1856, 2032, 1856, 2384, 1856, 2032, 1856, 2208, 1856, 2032, 1856, 2384, 1856, 2032, 1856, 2208, 1856, 2032, 1856, 2384, 1856, 2032, 1856, 2208, 1856, 2032, 1856, 
gpgpu_n_tot_thrd_icount = 131727360
gpgpu_n_tot_w_icount = 4116480
gpgpu_n_stall_shd_mem = 302881
gpgpu_n_mem_read_local = 0
gpgpu_n_mem_write_local = 0
gpgpu_n_mem_read_global = 155058
gpgpu_n_mem_write_global = 196608
gpgpu_n_mem_texture = 0
gpgpu_n_mem_const = 32
gpgpu_n_load_insn  = 1114112
gpgpu_n_store_insn = 1114112
gpgpu_n_shmem_insn = 8323072
gpgpu_n_sstarr_insn = 0
gpgpu_n_tex_insn = 0
gpgpu_n_const_mem_insn = 0
gpgpu_n_param_mem_insn = 4194304
gpgpu_n_shmem_bkconflict = 0
gpgpu_n_cache_bkconflict = 0
gpgpu_n_intrawarp_mshr_merge = 0
gpgpu_n_cmem_portconflict = 31516
gpgpu_stall_shd_mem[c_mem][resource_stall] = 31516
gpgpu_stall_shd_mem[s_mem][bk_conf] = 0
gpgpu_stall_shd_mem[gl_mem][resource_stall] = 1029
gpgpu_stall_shd_mem[gl_mem][coal_stall] = 270336
gpgpu_stall_shd_mem[gl_mem][data_port_stall] = 0
gpu_reg_bank_conflict_stalls = 0
Warp Occupancy Distribution:
Stall:315053	W0_Idle:761305	W0_Scoreboard:3945086	W1:0	W2:425984	W3:0	W4:0	W5:0	W6:0	W7:0	W8:0	W9:0	W10:0	W11:0	W12:0	W13:0	W14:0	W15:0	W16:675840	W17:0	W18:0	W19:0	W20:0	W21:0	W22:0	W23:0	W24:0	W25:0	W26:0	W27:0	W28:0	W29:0	W30:0	W31:0	W32:3014656
single_issue_nums: WS0:1175552	WS1:950272	WS2:1040384	WS3:950272	
dual_issue_nums: WS0:0	WS1:0	WS2:0	WS3:0	
traffic_breakdown_coretomem[CONST_ACC_R] = 256 {8:32,}
traffic_breakdown_coretomem[GLOBAL_ACC_R] = 1240464 {8:155058,}
traffic_breakdown_coretomem[GLOBAL_ACC_W] = 7864320 {40:196608,}
traffic_breakdown_coretomem[INST_ACC_R] = 1536 {8:192,}
traffic_breakdown_memtocore[CONST_ACC_R] = 2560 {40:64,}
traffic_breakdown_memtocore[GLOBAL_ACC_R] = 6202320 {40:155058,}
traffic_breakdown_memtocore[GLOBAL_ACC_W] = 1572864 {8:196608,}
traffic_breakdown_memtocore[INST_ACC_R] = 30720 {40:768,}
maxmflatency = 683 
max_icnt2mem_latency = 459 
maxmrqlatency = 45 
max_icnt2sh_latency = 230 
averagemflatency = 185 
avg_icnt2mem_latency = 56 
avg_mrq_latency = 16 
avg_icnt2sh_latency = 7 
mrq_lat_table:4 	6 	3 	0 	9 	4 	0 	0 	0 	0 	0 	0 	0 	0 	0 	0 	0 	0 	0 	0 	0 	0 	0 	0 	0 	0 	0 	0 	0 	0 	0 	0 	
dq_lat_table:0 	0 	0 	0 	0 	0 	0 	0 	0 	0 	0 	0 	0 	0 	0 	0 	0 	0 	0 	0 	0 	0 	0 	0 	0 	0 	0 	0 	0 	0 	0 	0 	
mf_lat_table:0 	0 	0 	0 	0 	0 	0 	322643 	28468 	619 	0 	0 	0 	0 	0 	0 	0 	0 	0 	0 	0 	0 	0 	0 	0 	0 	0 	0 	0 	0 	0 	0 	
icnt2mem_lat_table:0 	0 	105 	23488 	120836 	112284 	66656 	23539 	4982 	0 	0 	0 	0 	0 	0 	0 	0 	0 	0 	0 	0 	0 	0 	0 	
icnt2sh_lat_table:0 	0 	342982 	6808 	1396 	391 	57 	96 	0 	0 	0 	0 	0 	0 	0 	0 	0 	0 	0 	0 	0 	0 	0 	0 	
mf_lat_pw_table:0 	0 	0 	0 	0 	0 	0 	106 	6 	1 	0 	0 	0 	0 	0 	0 	0 	0 	0 	0 	0 	0 	0 	0 	0 	0 	0 	0 	0 	0 	0 	0 	
maximum concurrent accesses to same row:
dram[0]:         4         0         0         0         0         0         0         0         0         0         0         0         0         0         0         0 
dram[1]:         0         0         0         0         0         0         0         0         0         0         0         0         0         0         0         0 
dram[2]:         0         0         0         0         0         0         0         0         0         0         0         0         0         0         0         0 
dram[3]:         0         0         0         0         0         0         0         0         0         0         0         0         0         0         0         0 
dram[4]:         0         0         0         0         0         0         0         0         0         0         0         0         0         0         0         0 
dram[5]:         0         0         0         0         0         0         0         0         0         0         0         0         0         0         0         0 
dram[6]:         0         0         0         0         0         0         0         0         0         0         0         0         0         0         0         0 
dram[7]:         0         0         0         0         0         0         0         0         0         0         0         0         0         0         0         0 
dram[8]:         0         0         0         0         0         0         0         0         0         0         0         0         0         0         0         0 
dram[9]:         0         0         0         0         0         0         0         0         0         0         0         0         0         0         0         0 
dram[10]:         0         0         0         0         0         0         0         0         0         0         0         0         0         0         0         0 
dram[11]:         0         0         0         0         0         0         0         0         0         0         0         0         0         0         0         0 
dram[12]:         0         0         0         0         0         0         0         0         0         0         0         0         0         0         0         0 
dram[13]:         0         0         0         0         0         0         0         0         0         0         0         0         0         0         0         0 
dram[14]:         0         0         0         0         0         0         0         0         0         0         0         0         0         0         0         0 
dram[15]:         0         0         0         0         0         0         0         0         0         0         0         0         0         0         0         0 
dram[16]:         0         0         0         0         0         0         0         0         0         0         0         0         0         0         0         0 
dram[17]:         0         0         0         0         0         0         0         0         0         0         0         0         0         0         0         0 
dram[18]:         0         0         0         0         0         0         0         0         0         0         0         0         0         0         0         0 
dram[19]:         0         0         0         0         0         0         0         0         0         0         0         0         0         0         0         0 
dram[20]:         0         0         0         0         0         0         0         0         0         0         0         0         0         0         0         0 
dram[21]:         0         0         0         0         0         0         0         0         0         0         0         0         0         0         0         0 
dram[22]:         0         0         0         0         0         0         0         0         0         0         0         0         0         0         0         0 
dram[23]:         0         0         0         0         0         0         0         0         0         0         0         0         0         0         0         0 
dram[24]:         0         0         0         0         0         0         0         0         0         0         0         0         0         0         0         0 
dram[25]:         0         0         0         0         0         0         0         0         0         0         0         0         0         0         0         0 
dram[26]:         0         0         0         0         0         0         0         0         0         0         0         0         0         0         0         0 
dram[27]:         0         0         0         0         0         0         0         0         0         0         0         0         0         0         0         0 
dram[28]:         0         0         0         0         0         0         0         0         0         0         0         0         0         0         0         0 
dram[29]:         0         0         0         0         0         0         0         0         0         0         0         0         0         0         0         0 
dram[30]:         0         0         0         0         0         0         0         0         0         0         0         0         0         0         0         0 
dram[31]:         0         0         0         0         0         0         0         0         0         0         0         0         0         0         0         0 
maximum service time to same row:
dram[0]:       784         0         0         0         0         0         0         0         0         0         0         0         0         0         0         0 
dram[1]:      2190         0         0         0         0         0         0         0         0         0         0         0         0         0         0         0 
dram[2]:      3604         0         0         0         0         0         0         0         0         0         0         0         0         0         0         0 
dram[3]:         0         0         0         0         0         0         0         0         0         0         0         0         0         0         0         0 
dram[4]:         0         0         0         0         0         0         0         0         0         0         0         0         0         0         0         0 
dram[5]:         0         0         0         0         0         0         0         0         0         0         0         0         0         0         0         0 
dram[6]:         0         0         0         0         0         0         0         0         0         0         0         0         0         0         0         0 
dram[7]:         0         0         0         0         0         0         0         0         0         0         0         0         0         0         0         0 
dram[8]:         0         0         0         0         0         0         0         0         0         0         0         0         0         0         0         0 
dram[9]:         0         0         0         0         0         0         0         0         0         0         0         0         0         0         0         0 
dram[10]:         0         0         0         0         0         0         0         0         0         0         0         0         0         0         0         0 
dram[11]:         0         0         0         0         0         0         0         0         0         0         0         0         0         0         0         0 
dram[12]:         0         0         0         0         0         0         0         0         0         0         0         0         0         0         0         0 
dram[13]:         0         0         0         0         0         0         0         0         0         0         0         0         0         0         0         0 
dram[14]:         0         0         0         0         0         0         0         0         0         0         0         0         0         0         0         0 
dram[15]:         0         0         0         0         0         0         0         0         0         0         0         0         0         0         0         0 
dram[16]:         0         0         0         0         0         0         0         0         0         0         0         0         0         0         0         0 
dram[17]:         0         0         0         0         0         0         0         0         0         0         0         0         0         0         0         0 
dram[18]:         0         0         0         0         0         0         0         0         0         0         0         0         0         0         0         0 
dram[19]:         0         0         0         0         0         0         0         0         0         0         0         0         0         0         0         0 
dram[20]:         0         0         0         0         0         0         0         0         0         0         0         0         0         0         0         0 
dram[21]:         0         0         0         0         0         0         0         0         0         0         0         0         0         0         0         0 
dram[22]:         0         0         0         0         0         0         0         0         0         0         0         0         0         0         0         0 
dram[23]:         0         0         0         0         0         0         0         0         0         0         0         0         0         0         0         0 
dram[24]:         0         0         0         0         0         0         0         0         0         0         0         0         0         0         0         0 
dram[25]:         0         0         0         0         0         0         0         0         0         0         0         0         0         0         0         0 
dram[26]:         0         0         0         0         0         0         0         0         0         0         0         0         0         0         0         0 
dram[27]:         0         0         0         0         0         0         0         0         0         0         0         0         0         0         0         0 
dram[28]:         0         0         0         0         0         0         0         0         0         0         0         0         0         0         0         0 
dram[29]:         0         0         0         0         0         0         0         0         0         0         0         0         0         0         0         0 
dram[30]:         0         0         0         0         0         0         0         0         0         0         0         0         0         0         0         0 
dram[31]:         0         0         0         0         0         0         0         0         0         0         0         0         0         0         0         0 
average row accesses per activate:
dram[0]:  3.333333      -nan      -nan      -nan      -nan      -nan      -nan      -nan      -nan      -nan      -nan      -nan      -nan      -nan      -nan      -nan 
dram[1]:  8.000000      -nan      -nan      -nan      -nan      -nan      -nan      -nan      -nan      -nan      -nan      -nan      -nan      -nan      -nan      -nan 
dram[2]:  8.000000      -nan      -nan      -nan      -nan      -nan      -nan      -nan      -nan      -nan      -nan      -nan      -nan      -nan      -nan      -nan 
dram[3]:      -nan      -nan      -nan      -nan      -nan      -nan      -nan      -nan      -nan      -nan      -nan      -nan      -nan      -nan      -nan      -nan 
dram[4]:      -nan      -nan      -nan      -nan      -nan      -nan      -nan      -nan      -nan      -nan      -nan      -nan      -nan      -nan      -nan      -nan 
dram[5]:      -nan      -nan      -nan      -nan      -nan      -nan      -nan      -nan      -nan      -nan      -nan      -nan      -nan      -nan      -nan      -nan 
dram[6]:      -nan      -nan      -nan      -nan      -nan      -nan      -nan      -nan      -nan      -nan      -nan      -nan      -nan      -nan      -nan      -nan 
dram[7]:      -nan      -nan      -nan      -nan      -nan      -nan      -nan      -nan      -nan      -nan      -nan      -nan      -nan      -nan      -nan      -nan 
dram[8]:      -nan      -nan      -nan      -nan      -nan      -nan      -nan      -nan      -nan      -nan      -nan      -nan      -nan      -nan      -nan      -nan 
dram[9]:      -nan      -nan      -nan      -nan      -nan      -nan      -nan      -nan      -nan      -nan      -nan      -nan      -nan      -nan      -nan      -nan 
dram[10]:      -nan      -nan      -nan      -nan      -nan      -nan      -nan      -nan      -nan      -nan      -nan      -nan      -nan      -nan      -nan      -nan 
dram[11]:      -nan      -nan      -nan      -nan      -nan      -nan      -nan      -nan      -nan      -nan      -nan      -nan      -nan      -nan      -nan      -nan 
dram[12]:      -nan      -nan      -nan      -nan      -nan      -nan      -nan      -nan      -nan      -nan      -nan      -nan      -nan      -nan      -nan      -nan 
dram[13]:      -nan      -nan      -nan      -nan      -nan      -nan      -nan      -nan      -nan      -nan      -nan      -nan      -nan      -nan      -nan      -nan 
dram[14]:      -nan      -nan      -nan      -nan      -nan      -nan      -nan      -nan      -nan      -nan      -nan      -nan      -nan      -nan      -nan      -nan 
dram[15]:      -nan      -nan      -nan      -nan      -nan      -nan      -nan      -nan      -nan      -nan      -nan      -nan      -nan      -nan      -nan      -nan 
dram[16]:      -nan      -nan      -nan      -nan      -nan      -nan      -nan      -nan      -nan      -nan      -nan      -nan      -nan      -nan      -nan      -nan 
dram[17]:      -nan      -nan      -nan      -nan      -nan      -nan      -nan      -nan      -nan      -nan      -nan      -nan      -nan      -nan      -nan      -nan 
dram[18]:      -nan      -nan      -nan      -nan      -nan      -nan      -nan      -nan      -nan      -nan      -nan      -nan      -nan      -nan      -nan      -nan 
dram[19]:      -nan      -nan      -nan      -nan      -nan      -nan      -nan      -nan      -nan      -nan      -nan      -nan      -nan      -nan      -nan      -nan 
dram[20]:      -nan      -nan      -nan      -nan      -nan      -nan      -nan      -nan      -nan      -nan      -nan      -nan      -nan      -nan      -nan      -nan 
dram[21]:      -nan      -nan      -nan      -nan      -nan      -nan      -nan      -nan      -nan      -nan      -nan      -nan      -nan      -nan      -nan      -nan 
dram[22]:      -nan      -nan      -nan      -nan      -nan      -nan      -nan      -nan      -nan      -nan      -nan      -nan      -nan      -nan      -nan      -nan 
dram[23]:      -nan      -nan      -nan      -nan      -nan      -nan      -nan      -nan      -nan      -nan      -nan      -nan      -nan      -nan      -nan      -nan 
dram[24]:      -nan      -nan      -nan      -nan      -nan      -nan      -nan      -nan      -nan      -nan      -nan      -nan      -nan      -nan      -nan      -nan 
dram[25]:      -nan      -nan      -nan      -nan      -nan      -nan      -nan      -nan      -nan      -nan      -nan      -nan      -nan      -nan      -nan      -nan 
dram[26]:      -nan      -nan      -nan      -nan      -nan      -nan      -nan      -nan      -nan      -nan      -nan      -nan      -nan      -nan      -nan      -nan 
dram[27]:      -nan      -nan      -nan      -nan      -nan      -nan      -nan      -nan      -nan      -nan      -nan      -nan      -nan      -nan      -nan      -nan 
dram[28]:      -nan      -nan      -nan      -nan      -nan      -nan      -nan      -nan      -nan      -nan      -nan      -nan      -nan      -nan      -nan      -nan 
dram[29]:      -nan      -nan      -nan      -nan      -nan      -nan      -nan      -nan      -nan      -nan      -nan      -nan      -nan      -nan      -nan      -nan 
dram[30]:      -nan      -nan      -nan      -nan      -nan      -nan      -nan      -nan      -nan      -nan      -nan      -nan      -nan      -nan      -nan      -nan 
dram[31]:      -nan      -nan      -nan      -nan      -nan      -nan      -nan      -nan      -nan      -nan      -nan      -nan      -nan      -nan      -nan      -nan 
average row locality = 26/5 = 5.200000
number of total memory accesses made:
dram[0]:         0         0         0         0         0         0         0         0         0         0         0         0         0         0         0         0 
dram[1]:         0         0         0         0         0         0         0         0         0         0         0         0         0         0         0         0 
dram[2]:         0         0         0         0         0         0         0         0         0         0         0         0         0         0         0         0 
dram[3]:         0         0         0         0         0         0         0         0         0         0         0         0         0         0         0         0 
dram[4]:         0         0         0         0         0         0         0         0         0         0         0         0         0         0         0         0 
dram[5]:         0         0         0         0         0         0         0         0         0         0         0         0         0         0         0         0 
dram[6]:         0         0         0         0         0         0         0         0         0         0         0         0         0         0         0         0 
dram[7]:         0         0         0         0         0         0         0         0         0         0         0         0         0         0         0         0 
dram[8]:         0         0         0         0         0         0         0         0         0         0         0         0         0         0         0         0 
dram[9]:         0         0         0         0         0         0         0         0         0         0         0         0         0         0         0         0 
dram[10]:         0         0         0         0         0         0         0         0         0         0         0         0         0         0         0         0 
dram[11]:         0         0         0         0         0         0         0         0         0         0         0         0         0         0         0         0 
dram[12]:         0         0         0         0         0         0         0         0         0         0         0         0         0         0         0         0 
dram[13]:         0         0         0         0         0         0         0         0         0         0         0         0         0         0         0         0 
dram[14]:         0         0         0         0         0         0         0         0         0         0         0         0         0         0         0         0 
dram[15]:         0         0         0         0         0         0         0         0         0         0         0         0         0         0         0         0 
dram[16]:         0         0         0         0         0         0         0         0         0         0         0         0         0         0         0         0 
dram[17]:         0         0         0         0         0         0         0         0         0         0         0         0         0         0         0         0 
dram[18]:         0         0         0         0         0         0         0         0         0         0         0         0         0         0         0         0 
dram[19]:         0         0         0         0         0         0         0         0         0         0         0         0         0         0         0         0 
dram[20]:         0         0         0         0         0         0         0         0         0         0         0         0         0         0         0         0 
dram[21]:         0         0         0         0         0         0         0         0         0         0         0         0         0         0         0         0 
dram[22]:         0         0         0         0         0         0         0         0         0         0         0         0         0         0         0         0 
dram[23]:         0         0         0         0         0         0         0         0         0         0         0         0         0         0         0         0 
dram[24]:         0         0         0         0         0         0         0         0         0         0         0         0         0         0         0         0 
dram[25]:         0         0         0         0         0         0         0         0         0         0         0         0         0         0         0         0 
dram[26]:         0         0         0         0         0         0         0         0         0         0         0         0         0         0         0         0 
dram[27]:         0         0         0         0         0         0         0         0         0         0         0         0         0         0         0         0 
dram[28]:         0         0         0         0         0         0         0         0         0         0         0         0         0         0         0         0 
dram[29]:         0         0         0         0         0         0         0         0         0         0         0         0         0         0         0         0 
dram[30]:         0         0         0         0         0         0         0         0         0         0         0         0         0         0         0         0 
dram[31]:         0         0         0         0         0         0         0         0         0         0         0         0         0         0         0         0 
total accesses: 0
min_bank_accesses = 0!
min_chip_accesses = 0!
number of total read accesses:
dram[0]:        10         0         0         0         0         0         0         0         0         0         0         0         0         0         0         0 
dram[1]:         8         0         0         0         0         0         0         0         0         0         0         0         0         0         0         0 
dram[2]:         8         0         0         0         0         0         0         0         0         0         0         0         0         0         0         0 
dram[3]:         0         0         0         0         0         0         0         0         0         0         0         0         0         0         0         0 
dram[4]:         0         0         0         0         0         0         0         0         0         0         0         0         0         0         0         0 
dram[5]:         0         0         0         0         0         0         0         0         0         0         0         0         0         0         0         0 
dram[6]:         0         0         0         0         0         0         0         0         0         0         0         0         0         0         0         0 
dram[7]:         0         0         0         0         0         0         0         0         0         0         0         0         0         0         0         0 
dram[8]:         0         0         0         0         0         0         0         0         0         0         0         0         0         0         0         0 
dram[9]:         0         0         0         0         0         0         0         0         0         0         0         0         0         0         0         0 
dram[10]:         0         0         0         0         0         0         0         0         0         0         0         0         0         0         0         0 
dram[11]:         0         0         0         0         0         0         0         0         0         0         0         0         0         0         0         0 
dram[12]:         0         0         0         0         0         0         0         0         0         0         0         0         0         0         0         0 
dram[13]:         0         0         0         0         0         0         0         0         0         0         0         0         0         0         0         0 
dram[14]:         0         0         0         0         0         0         0         0         0         0         0         0         0         0         0         0 
dram[15]:         0         0         0         0         0         0         0         0         0         0         0         0         0         0         0         0 
dram[16]:         0         0         0         0         0         0         0         0         0         0         0         0         0         0         0         0 
dram[17]:         0         0         0         0         0         0         0         0         0         0         0         0         0         0         0         0 
dram[18]:         0         0         0         0         0         0         0         0         0         0         0         0         0         0         0         0 
dram[19]:         0         0         0         0         0         0         0         0         0         0         0         0         0         0         0         0 
dram[20]:         0         0         0         0         0         0         0         0         0         0         0         0         0         0         0         0 
dram[21]:         0         0         0         0         0         0         0         0         0         0         0         0         0         0         0         0 
dram[22]:         0         0         0         0         0         0         0         0         0         0         0         0         0         0         0         0 
dram[23]:         0         0         0         0         0         0         0         0         0         0         0         0         0         0         0         0 
dram[24]:         0         0         0         0         0         0         0         0         0         0         0         0         0         0         0         0 
dram[25]:         0         0         0         0         0         0         0         0         0         0         0         0         0         0         0         0 
dram[26]:         0         0         0         0         0         0         0         0         0         0         0         0         0         0         0         0 
dram[27]:         0         0         0         0         0         0         0         0         0         0         0         0         0         0         0         0 
dram[28]:         0         0         0         0         0         0         0         0         0         0         0         0         0         0         0         0 
dram[29]:         0         0         0         0         0         0         0         0         0         0         0         0         0         0         0         0 
dram[30]:         0         0         0         0         0         0         0         0         0         0         0         0         0         0         0         0 
dram[31]:         0         0         0         0         0         0         0         0         0         0         0         0         0         0         0         0 
total dram reads = 26
min_bank_accesses = 0!
min_chip_accesses = 0!
number of total write accesses:
dram[0]:         0         0         0         0         0         0         0         0         0         0         0         0         0         0         0         0 
dram[1]:         0         0         0         0         0         0         0         0         0         0         0         0         0         0         0         0 
dram[2]:         0         0         0         0         0         0         0         0         0         0         0         0         0         0         0         0 
dram[3]:         0         0         0         0         0         0         0         0         0         0         0         0         0         0         0         0 
dram[4]:         0         0         0         0         0         0         0         0         0         0         0         0         0         0         0         0 
dram[5]:         0         0         0         0         0         0         0         0         0         0         0         0         0         0         0         0 
dram[6]:         0         0         0         0         0         0         0         0         0         0         0         0         0         0         0         0 
dram[7]:         0         0         0         0         0         0         0         0         0         0         0         0         0         0         0         0 
dram[8]:         0         0         0         0         0         0         0         0         0         0         0         0         0         0         0         0 
dram[9]:         0         0         0         0         0         0         0         0         0         0         0         0         0         0         0         0 
dram[10]:         0         0         0         0         0         0         0         0         0         0         0         0         0         0         0         0 
dram[11]:         0         0         0         0         0         0         0         0         0         0         0         0         0         0         0         0 
dram[12]:         0         0         0         0         0         0         0         0         0         0         0         0         0         0         0         0 
dram[13]:         0         0         0         0         0         0         0         0         0         0         0         0         0         0         0         0 
dram[14]:         0         0         0         0         0         0         0         0         0         0         0         0         0         0         0         0 
dram[15]:         0         0         0         0         0         0         0         0         0         0         0         0         0         0         0         0 
dram[16]:         0         0         0         0         0         0         0         0         0         0         0         0         0         0         0         0 
dram[17]:         0         0         0         0         0         0         0         0         0         0         0         0         0         0         0         0 
dram[18]:         0         0         0         0         0         0         0         0         0         0         0         0         0         0         0         0 
dram[19]:         0         0         0         0         0         0         0         0         0         0         0         0         0         0         0         0 
dram[20]:         0         0         0         0         0         0         0         0         0         0         0         0         0         0         0         0 
dram[21]:         0         0         0         0         0         0         0         0         0         0         0         0         0         0         0         0 
dram[22]:         0         0         0         0         0         0         0         0         0         0         0         0         0         0         0         0 
dram[23]:         0         0         0         0         0         0         0         0         0         0         0         0         0         0         0         0 
dram[24]:         0         0         0         0         0         0         0         0         0         0         0         0         0         0         0         0 
dram[25]:         0         0         0         0         0         0         0         0         0         0         0         0         0         0         0         0 
dram[26]:         0         0         0         0         0         0         0         0         0         0         0         0         0         0         0         0 
dram[27]:         0         0         0         0         0         0         0         0         0         0         0         0         0         0         0         0 
dram[28]:         0         0         0         0         0         0         0         0         0         0         0         0         0         0         0         0 
dram[29]:         0         0         0         0         0         0         0         0         0         0         0         0         0         0         0         0 
dram[30]:         0         0         0         0         0         0         0         0         0         0         0         0         0         0         0         0 
dram[31]:         0         0         0         0         0         0         0         0         0         0         0         0         0         0         0         0 
total dram writes = 0
min_bank_accesses = 0!
min_chip_accesses = 0!
average mf latency per bank:
dram[0]:      13722    none      none      none      none      none      none      none      none      none      none      none      none      none      none      none  
dram[1]:      14773    none      none      none      none      none      none      none      none      none      none      none      none      none      none      none  
dram[2]:      14341    none      none      none      none      none      none      none      none      none      none      none      none      none      none      none  
dram[3]:     none      none      none      none      none      none      none      none      none      none      none      none      none      none      none      none  
dram[4]:     none      none      none      none      none      none      none      none      none      none      none      none      none      none      none      none  
dram[5]:     none      none      none      none      none      none      none      none      none      none      none      none      none      none      none      none  
dram[6]:     none      none      none      none      none      none      none      none      none      none      none      none      none      none      none      none  
dram[7]:     none      none      none      none      none      none      none      none      none      none      none      none      none      none      none      none  
dram[8]:     none      none      none      none      none      none      none      none      none      none      none      none      none      none      none      none  
dram[9]:     none      none      none      none      none      none      none      none      none      none      none      none      none      none      none      none  
dram[10]:     none      none      none      none      none      none      none      none      none      none      none      none      none      none      none      none  
dram[11]:     none      none      none      none      none      none      none      none      none      none      none      none      none      none      none      none  
dram[12]:     none      none      none      none      none      none      none      none      none      none      none      none      none      none      none      none  
dram[13]:     none      none      none      none      none      none      none      none      none      none      none      none      none      none      none      none  
dram[14]:     none      none      none      none      none      none      none      none      none      none      none      none      none      none      none      none  
dram[15]:     none      none      none      none      none      none      none      none      none      none      none      none      none      none      none      none  
dram[16]:     none      none      none      none      none      none      none      none      none      none      none      none      none      none      none      none  
dram[17]:     none      none      none      none      none      none      none      none      none      none      none      none      none      none      none      none  
dram[18]:     none      none      none      none      none      none      none      none      none      none      none      none      none      none      none      none  
dram[19]:     none      none      none      none      none      none      none      none      none      none      none      none      none      none      none      none  
dram[20]:     none      none      none      none      none      none      none      none      none      none      none      none      none      none      none      none  
dram[21]:     none      none      none      none      none      none      none      none      none      none      none      none      none      none      none      none  
dram[22]:     none      none      none      none      none      none      none      none      none      none      none      none      none      none      none      none  
dram[23]:     none      none      none      none      none      none      none      none      none      none      none      none      none      none      none      none  
dram[24]:     none      none      none      none      none      none      none      none      none      none      none      none      none      none      none      none  
dram[25]:     none      none      none      none      none      none      none      none      none      none      none      none      none      none      none      none  
dram[26]:     none      none      none      none      none      none      none      none      none      none      none      none      none      none      none      none  
dram[27]:     none      none      none      none      none      none      none      none      none      none      none      none      none      none      none      none  
dram[28]:     none      none      none      none      none      none      none      none      none      none      none      none      none      none      none      none  
dram[29]:     none      none      none      none      none      none      none      none      none      none      none      none      none      none      none      none  
dram[30]:     none      none      none      none      none      none      none      none      none      none      none      none      none      none      none      none  
dram[31]:     none      none      none      none      none      none      none      none      none      none      none      none      none      none      none      none  
maximum mf latency per bank:
dram[0]:        351       300       295       294       329       405       517       493       537       538       444       440       362       420       314       325
[...]

Row_Buffer_Locality = 0.950793
Row_Buffer_Locality_read = 0.967098
Row_Buffer_Locality_write = 0.777126
Bank_Level_Parallism = 2.648653
Bank_Level_Parallism_Col = 2.371633
Bank_Level_Parallism_Ready = 1.335068
write_to_read_ratio_blp_rw_average = 0.320373
GrpLevelPara = 1.719199 

BW Util details:
bwutil = 0.136005 
total_CMD = 73468 
util_bw = 9992 
Wasted_Col = 6450 
Wasted_Row = 823 
Idle = 56203 

BW Util Bottlenecks: 
RCDc_limit = 1654 
RCDWRc_limit = 647 
WTRc_limit = 1670 
RTWc_limit = 5115 
CCDLc_limit = 5545 
rwq = 0 
CCDLc_limit_alone = 4294 
WTRc_limit_alone = 1219 
RTWc_limit_alone = 4315 

Commands details: 
total_CMD = 73468 
n_nop = 63048 
Read = 7264 
Write = 0 
L2_Alloc = 0 
L2_WB = 2728 
n_act = 391 
n_pre = 375 
n_ref = 0 
n_req = 7946 
total_req = 9992 

Dual Bus Interface Util: 
issued_total_row = 766 
issued_total_col = 9992 
Row_Bus_Util =  0.010426 
CoL_Bus_Util = 0.136005 
Either_Row_CoL_Bus_Util = 0.141830 
Issued_on_Two_Bus_Simul_Util = 0.004601 
issued_two_Eff = 0.032438 
queue_avg = 2.337821 


dram_util_bins: 0 0 0 0 0 0 0 0 0 0
dram_eff_bins: 0 0 0 0 0 0 0 0 0 0
mrqq: max=64 avg=2.33782
Memory Partition 29: 
Cache L2_bank_058:
MSHR contents

Cache L2_bank_059:
MSHR contents

In Dram Latency Queue (total = 0): 
DRAM[29]: 16 bks, busW=16 BL=2 CL=12, tRRD=3 tCCD=1, tRCD=12 tRAS=28 tRP=12 tRC=40
n_cmd=73468 n_nop=63048 n_act=399 n_pre=383 n_ref_event=0 n_req=7946 n_rd=7264 n_rd_L2_A=0 n_write=0 n_wr_bk=2728 bw_util=0.136
n_activity=21195 dram_eff=0.4714
bk0: 512a 70966i bk1: 512a 71334i bk2: 512a 70331i bk3: 512a 70669i bk4: 448a 71199i bk5: 448a 70824i bk6: 448a 70842i bk7: 448a 70623i bk8: 384a 71788i bk9: 384a 71623i bk10: 384a 71488i bk11: 384a 71042i bk12: 496a 70816i bk13: 496a 70906i bk14: 448a 70801i bk15: 448a 71064i 

------------------------------------------------------------------------

Row_Buffer_Locality = 0.949786
Row_Buffer_Locality_read = 0.965997
Row_Buffer_Locality_write = 0.777126
Bank_Level_Parallism = 2.748848
Bank_Level_Parallism_Col = 2.457178
Bank_Level_Parallism_Ready = 1.371097
write_to_read_ratio_blp_rw_average = 0.309212
GrpLevelPara = 1.760406 

BW Util details:
bwutil = 0.136005 
total_CMD = 73468 
util_bw = 9992 
Wasted_Col = 6354 
Wasted_Row = 795 
Idle = 56327 

BW Util Bottlenecks: 
RCDc_limit = 1702 
RCDWRc_limit = 647 
WTRc_limit = 2120 
RTWc_limit = 5096 
CCDLc_limit = 5884 
rwq = 0 
CCDLc_limit_alone = 4458 
WTRc_limit_alone = 1612 
RTWc_limit_alone = 4178 

Commands details: 
total_CMD = 73468 
n_nop = 63048 
Read = 7264 
Write = 0 
L2_Alloc = 0 
L2_WB = 2728 
n_act = 399 
n_pre = 383 
n_ref = 0 
n_req = 7946 
total_req = 9992 

Dual Bus Interface Util: 
issued_total_row = 782 
issued_total_col = 9992 
Row_Bus_Util =  0.010644 
CoL_Bus_Util = 0.136005 
Either_Row_CoL_Bus_Util = 0.141830 
Issued_on_Two_Bus_Simul_Util = 0.004818 
issued_two_Eff = 0.033973 
queue_avg = 2.508303 


dram_util_bins: 0 0 0 0 0 0 0 0 0 0
dram_eff_bins: 0 0 0 0 0 0 0 0 0 0
mrqq: max=64 avg=2.5083
Memory Partition 30: 
Cache L2_bank_060:
MSHR contents

Cache L2_bank_061:
MSHR contents

In Dram Latency Queue (total = 0): 
DRAM[30]: 16 bks, busW=16 BL=2 CL=12, tRRD=3 tCCD=1, tRCD=12 tRAS=28 tRP=12 tRC=40
n_cmd=73468 n_nop=63031 n_act=403 n_pre=387 n_ref_event=0 n_req=7946 n_rd=7264 n_rd_L2_A=0 n_write=0 n_wr_bk=2728 bw_util=0.136
n_activity=21129 dram_eff=0.4729
bk0: 512a 71515i bk1: 512a 71132i bk2: 512a 70864i bk3: 512a 71039i bk4: 448a 71194i bk5: 448a 71152i bk6: 448a 70765i bk7: 448a 70749i bk8: 384a 71887i bk9: 384a 71185i bk10: 384a 71263i bk11: 384a 71203i bk12: 496a 70816i bk13: 496a 71212i bk14: 448a 70934i bk15: 448a 70943i 

------------------------------------------------------------------------

Row_Buffer_Locality = 0.949283
Row_Buffer_Locality_read = 0.966410
Row_Buffer_Locality_write = 0.766862
Bank_Level_Parallism = 2.631242
Bank_Level_Parallism_Col = 2.337008
Bank_Level_Parallism_Ready = 1.338271
write_to_read_ratio_blp_rw_average = 0.307871
GrpLevelPara = 1.731271 

BW Util details:
bwutil = 0.136005 
total_CMD = 73468 
util_bw = 9992 
Wasted_Col = 6504 
Wasted_Row = 827 
Idle = 56145 

BW Util Bottlenecks: 
RCDc_limit = 1671 
RCDWRc_limit = 702 
WTRc_limit = 2117 
RTWc_limit = 4412 
CCDLc_limit = 5682 
rwq = 0 
CCDLc_limit_alone = 4516 
WTRc_limit_alone = 1652 
RTWc_limit_alone = 3711 

Commands details: 
total_CMD = 73468 
n_nop = 63031 
Read = 7264 
Write = 0 
L2_Alloc = 0 
L2_WB = 2728 
n_act = 403 
n_pre = 387 
n_ref = 0 
n_req = 7946 
total_req = 9992 

Dual Bus Interface Util: 
issued_total_row = 790 
issued_total_col = 9992 
Row_Bus_Util =  0.010753 
CoL_Bus_Util = 0.136005 
Either_Row_CoL_Bus_Util = 0.142062 
Issued_on_Two_Bus_Simul_Util = 0.004696 
issued_two_Eff = 0.033055 
queue_avg = 2.339862 


dram_util_bins: 0 0 0 0 0 0 0 0 0 0
dram_eff_bins: 0 0 0 0 0 0 0 0 0 0
mrqq: max=64 avg=2.33986
Memory Partition 31: 
Cache L2_bank_062:
MSHR contents

Cache L2_bank_063:
MSHR contents

In Dram Latency Queue (total = 0): 
DRAM[31]: 16 bks, busW=16 BL=2 CL=12, tRRD=3 tCCD=1, tRCD=12 tRAS=28 tRP=12 tRC=40
n_cmd=73468 n_nop=63041 n_act=391 n_pre=375 n_ref_event=0 n_req=7946 n_rd=7264 n_rd_L2_A=0 n_write=0 n_wr_bk=2728 bw_util=0.136
n_activity=21049 dram_eff=0.4747
bk0: 512a 71084i bk1: 512a 71042i bk2: 512a 70881i bk3: 512a 70763i bk4: 448a 71328i bk5: 448a 71146i bk6: 448a 70795i bk7: 448a 70804i bk8: 384a 71656i bk9: 384a 71047i bk10: 384a 71421i bk11: 384a 71672i bk12: 496a 70932i bk13: 496a 71289i bk14: 448a 71020i bk15: 448a 70821i 

------------------------------------------------------------------------

Row_Buffer_Locality = 0.950793
Row_Buffer_Locality_read = 0.966410
Row_Buffer_Locality_write = 0.784458
Bank_Level_Parallism = 2.646739
Bank_Level_Parallism_Col = 2.366356
Bank_Level_Parallism_Ready = 1.338971
write_to_read_ratio_blp_rw_average = 0.299530
GrpLevelPara = 1.744237 

BW Util details:
bwutil = 0.136005 
total_CMD = 73468 
util_bw = 9992 
Wasted_Col = 6401 
Wasted_Row = 886 
Idle = 56189 

BW Util Bottlenecks: 
RCDc_limit = 1695 
RCDWRc_limit = 630 
WTRc_limit = 2192 
RTWc_limit = 4748 
CCDLc_limit = 5694 
rwq = 0 
CCDLc_limit_alone = 4454 
WTRc_limit_alone = 1690 
RTWc_limit_alone = 4010 

Commands details: 
total_CMD = 73468 
n_nop = 63041 
Read = 7264 
Write = 0 
L2_Alloc = 0 
L2_WB = 2728 
n_act = 391 
n_pre = 375 
n_ref = 0 
n_req = 7946 
total_req = 9992 

Dual Bus Interface Util: 
issued_total_row = 766 
issued_total_col = 9992 
Row_Bus_Util =  0.010426 
CoL_Bus_Util = 0.136005 
Either_Row_CoL_Bus_Util = 0.141926 
Issued_on_Two_Bus_Simul_Util = 0.004505 
issued_two_Eff = 0.031745 
queue_avg = 2.449801 


dram_util_bins: 0 0 0 0 0 0 0 0 0 0
dram_eff_bins: 0 0 0 0 0 0 0 0 0 0
mrqq: max=63 avg=2.4498

========= L2 cache stats =========
L2_cache_bank[0]: Access = 15738, Miss = 4163, Miss_rate = 0.265, Pending_hits = 134, Reservation_fails = 458
L2_cache_bank[1]: Access = 15439, Miss = 4144, Miss_rate = 0.268, Pending_hits = 111, Reservation_fails = 0
L2_cache_bank[2]: Access = 15704, Miss = 4160, Miss_rate = 0.265, Pending_hits = 138, Reservation_fails = 251
L2_cache_bank[3]: Access = 15440, Miss = 4144, Miss_rate = 0.268, Pending_hits = 120, Reservation_fails = 0
L2_cache_bank[4]: Access = 15684, Miss = 4159, Miss_rate = 0.265, Pending_hits = 118, Reservation_fails = 189
L2_cache_bank[5]: Access = 15420, Miss = 4144, Miss_rate = 0.269, Pending_hits = 99, Reservation_fails = 0
L2_cache_bank[6]: Access = 15791, Miss = 4167, Miss_rate = 0.264, Pending_hits = 138, Reservation_fails = 426
L2_cache_bank[7]: Access = 15433, Miss = 4136, Miss_rate = 0.268, Pending_hits = 113, Reservation_fails = 0
L2_cache_bank[8]: Access = 15662, Miss = 4167, Miss_rate = 0.266, Pending_hits = 127, Reservation_fails = 166
L2_cache_bank[9]: Access = 15449, Miss = 4144, Miss_rate = 0.268, Pending_hits = 101, Reservation_fails = 0
L2_cache_bank[10]: Access = 15469, Miss = 4144, Miss_rate = 0.268, Pending_hits = 101, Reservation_fails = 0
L2_cache_bank[11]: Access = 15446, Miss = 4144, Miss_rate = 0.268, Pending_hits = 115, Reservation_fails = 0
L2_cache_bank[12]: Access = 15419, Miss = 4148, Miss_rate = 0.269, Pending_hits = 94, Reservation_fails = 0
L2_cache_bank[13]: Access = 15421, Miss = 4144, Miss_rate = 0.269, Pending_hits = 104, Reservation_fails = 0
L2_cache_bank[14]: Access = 15442, Miss = 4152, Miss_rate = 0.269, Pending_hits = 117, Reservation_fails = 0
L2_cache_bank[15]: Access = 15414, Miss = 4144, Miss_rate = 0.269, Pending_hits = 118, Reservation_fails = 0
L2_cache_bank[16]: Access = 15445, Miss = 4152, Miss_rate = 0.269, Pending_hits = 105, Reservation_fails = 0
L2_cache_bank[17]: Access = 15449, Miss = 4144, Miss_rate = 0.268, Pending_hits = 103, Reservation_fails = 0
L2_cache_bank[18]: Access = 15412, Miss = 4152, Miss_rate = 0.269, Pending_hits = 101, Reservation_fails = 0
L2_cache_bank[19]: Access = 15417, Miss = 4144, Miss_rate = 0.269, Pending_hits = 108, Reservation_fails = 0
L2_cache_bank[20]: Access = 15448, Miss = 4152, Miss_rate = 0.269, Pending_hits = 108, Reservation_fails = 0
L2_cache_bank[21]: Access = 15418, Miss = 4144, Miss_rate = 0.269, Pending_hits = 101, Reservation_fails = 0
L2_cache_bank[22]: Access = 15427, Miss = 4152, Miss_rate = 0.269, Pending_hits = 116, Reservation_fails = 0
L2_cache_bank[23]: Access = 15451, Miss = 4144, Miss_rate = 0.268, Pending_hits = 101, Reservation_fails = 0
L2_cache_bank[24]: Access = 15418, Miss = 4152, Miss_rate = 0.269, Pending_hits = 101, Reservation_fails = 0
L2_cache_bank[25]: Access = 15433, Miss = 4144, Miss_rate = 0.269, Pending_hits = 118, Reservation_fails = 0
L2_cache_bank[26]: Access = 15446, Miss = 4152, Miss_rate = 0.269, Pending_hits = 106, Reservation_fails = 0
L2_cache_bank[27]: Access = 15415, Miss = 4144, Miss_rate = 0.269, Pending_hits = 111, Reservation_fails = 0
L2_cache_bank[28]: Access = 15427, Miss = 4144, Miss_rate = 0.269, Pending_hits = 101, Reservation_fails = 0
L2_cache_bank[29]: Access = 15458, Miss = 4136, Miss_rate = 0.268, Pending_hits = 128, Reservation_fails = 0
L2_cache_bank[30]: Access = 15419, Miss = 4148, Miss_rate = 0.269, Pending_hits = 110, Reservation_fails = 0
L2_cache_bank[31]: Access = 15429, Miss = 4132, Miss_rate = 0.268, Pending_hits = 109, Reservation_fails = 0
L2_cache_bank[32]: Access = 15443, Miss = 4148, Miss_rate = 0.269, Pending_hits = 124, Reservation_fails = 0
L2_cache_bank[33]: Access = 15420, Miss = 4136, Miss_rate = 0.268, Pending_hits = 108, Reservation_fails = 0
L2_cache_bank[34]: Access = 15441, Miss = 4152, Miss_rate = 0.269, Pending_hits = 112, Reservation_fails = 0
L2_cache_bank[35]: Access = 15443, Miss = 4144, Miss_rate = 0.268, Pending_hits = 110, Reservation_fails = 0
L2_cache_bank[36]: Access = 15417, Miss = 4144, Miss_rate = 0.269, Pending_hits = 123, Reservation_fails = 0
L2_cache_bank[37]: Access = 15427, Miss = 4144, Miss_rate = 0.269, Pending_hits = 118, Reservation_fails = 0
L2_cache_bank[38]: Access = 15443, Miss = 4152, Miss_rate = 0.269, Pending_hits = 113, Reservation_fails = 0
L2_cache_bank[39]: Access = 15435, Miss = 4144, Miss_rate = 0.268, Pending_hits = 114, Reservation_fails = 0
L2_cache_bank[40]: Access = 15432, Miss = 4152, Miss_rate = 0.269, Pending_hits = 111, Reservation_fails = 0
L2_cache_bank[41]: Access = 15407, Miss = 4144, Miss_rate = 0.269, Pending_hits = 99, Reservation_fails = 0
L2_cache_bank[42]: Access = 15432, Miss = 4152, Miss_rate = 0.269, Pending_hits = 111, Reservation_fails = 0
L2_cache_bank[43]: Access = 15422, Miss = 4144, Miss_rate = 0.269, Pending_hits = 102, Reservation_fails = 0
L2_cache_bank[44]: Access = 15459, Miss = 4152, Miss_rate = 0.269, Pending_hits = 114, Reservation_fails = 0
L2_cache_bank[45]: Access = 15429, Miss = 4144, Miss_rate = 0.269, Pending_hits = 107, Reservation_fails = 0
L2_cache_bank[46]: Access = 15423, Miss = 4152, Miss_rate = 0.269, Pending_hits = 109, Reservation_fails = 0
L2_cache_bank[47]: Access = 15443, Miss = 4144, Miss_rate = 0.268, Pending_hits = 87, Reservation_fails = 0
L2_cache_bank[48]: Access = 15447, Miss = 4152, Miss_rate = 0.269, Pending_hits = 121, Reservation_fails = 0
L2_cache_bank[49]: Access = 15441, Miss = 4144, Miss_rate = 0.268, Pending_hits = 89, Reservation_fails = 0
L2_cache_bank[50]: Access = 15409, Miss = 4152, Miss_rate = 0.269, Pending_hits = 103, Reservation_fails = 0
L2_cache_bank[51]: Access = 15412, Miss = 4144, Miss_rate = 0.269, Pending_hits = 90, Reservation_fails = 0
L2_cache_bank[52]: Access = 15409, Miss = 4152, Miss_rate = 0.269, Pending_hits = 103, Reservation_fails = 0
L2_cache_bank[53]: Access = 15452, Miss = 4144, Miss_rate = 0.268, Pending_hits = 100, Reservation_fails = 0
L2_cache_bank[54]: Access = 15425, Miss = 4148, Miss_rate = 0.269, Pending_hits = 101, Reservation_fails = 0
L2_cache_bank[55]: Access = 15420, Miss = 4144, Miss_rate = 0.269, Pending_hits = 96, Reservation_fails = 0
L2_cache_bank[56]: Access = 15436, Miss = 4144, Miss_rate = 0.268, Pending_hits = 106, Reservation_fails = 0
L2_cache_bank[57]: Access = 15418, Miss = 4144, Miss_rate = 0.269, Pending_hits = 99, Reservation_fails = 0
L2_cache_bank[58]: Access = 15430, Miss = 4144, Miss_rate = 0.269, Pending_hits = 111, Reservation_fails = 0
L2_cache_bank[59]: Access = 15421, Miss = 4144, Miss_rate = 0.269, Pending_hits = 103, Reservation_fails = 0
L2_cache_bank[60]: Access = 15456, Miss = 4144, Miss_rate = 0.268, Pending_hits = 98, Reservation_fails = 0
L2_cache_bank[61]: Access = 15429, Miss = 4144, Miss_rate = 0.269, Pending_hits = 105, Reservation_fails = 0
L2_cache_bank[62]: Access = 15437, Miss = 4144, Miss_rate = 0.268, Pending_hits = 115, Reservation_fails = 0
L2_cache_bank[63]: Access = 15412, Miss = 4144, Miss_rate = 0.269, Pending_hits = 115, Reservation_fails = 0
L2_total_cache_accesses = 989053
L2_total_cache_misses = 265420
L2_total_cache_miss_rate = 0.2684
L2_total_cache_pending_hits = 6992
L2_total_cache_reservation_fails = 1490
L2_total_cache_breakdown:
	L2_cache_stats_breakdown[GLOBAL_ACC_R][HIT] = 223939
	L2_cache_stats_breakdown[GLOBAL_ACC_R][HIT_RESERVED] = 6866
	L2_cache_stats_breakdown[GLOBAL_ACC_R][MISS] = 58154
	L2_cache_stats_breakdown[GLOBAL_ACC_R][RESERVATION_FAIL] = 129
	L2_cache_stats_breakdown[GLOBAL_ACC_R][SECTOR_MISS] = 174456
	L2_cache_stats_breakdown[LOCAL_ACC_R][HIT] = 0
	L2_cache_stats_breakdown[LOCAL_ACC_R][HIT_RESERVED] = 0
	L2_cache_stats_breakdown[LOCAL_ACC_R][MISS] = 0
	L2_cache_stats_breakdown[LOCAL_ACC_R][RESERVATION_FAIL] = 0
	L2_cache_stats_breakdown[LOCAL_ACC_R][SECTOR_MISS] = 0
	L2_cache_stats_breakdown[CONST_ACC_R][HIT] = 56
	L2_cache_stats_breakdown[CONST_ACC_R][HIT_RESERVED] = 6
	L2_cache_stats_breakdown[CONST_ACC_R][MISS] = 1
	L2_cache_stats_breakdown[CONST_ACC_R][RESERVATION_FAIL] = 162
	L2_cache_stats_breakdown[CONST_ACC_R][SECTOR_MISS] = 1
	L2_cache_stats_breakdown[TEXTURE_ACC_R][HIT] = 0
	L2_cache_stats_breakdown[TEXTURE_ACC_R][HIT_RESERVED] = 0
	L2_cache_stats_breakdown[TEXTURE_ACC_R][MISS] = 0
	L2_cache_stats_breakdown[TEXTURE_ACC_R][RESERVATION_FAIL] = 0
	L2_cache_stats_breakdown[TEXTURE_ACC_R][SECTOR_MISS] = 0
	L2_cache_stats_breakdown[GLOBAL_ACC_W][HIT] = 491526
	L2_cache_stats_breakdown[GLOBAL_ACC_W][HIT_RESERVED] = 0
	L2_cache_stats_breakdown[GLOBAL_ACC_W][MISS] = 2048
	L2_cache_stats_breakdown[GLOBAL_ACC_W][RESERVATION_FAIL] = 0
	L2_cache_stats_breakdown[GLOBAL_ACC_W][SECTOR_MISS] = 30720
	L2_cache_stats_breakdown[LOCAL_ACC_W][HIT] = 0
	L2_cache_stats_breakdown[LOCAL_ACC_W][HIT_RESERVED] = 0
	L2_cache_stats_breakdown[LOCAL_ACC_W][MISS] = 0
	L2_cache_stats_breakdown[LOCAL_ACC_W][RESERVATION_FAIL] = 0
	L2_cache_stats_breakdown[LOCAL_ACC_W][SECTOR_MISS] = 0
	L2_cache_stats_breakdown[L1_WRBK_ACC][HIT] = 0
	L2_cache_stats_breakdown[L1_WRBK_ACC][HIT_RESERVED] = 0
	L2_cache_stats_breakdown[L1_WRBK_ACC][MISS] = 0
	L2_cache_stats_breakdown[L1_WRBK_ACC][RESERVATION_FAIL] = 0
	L2_cache_stats_breakdown[L1_WRBK_ACC][SECTOR_MISS] = 0
	L2_cache_stats_breakdown[L2_WRBK_ACC][HIT] = 0
	L2_cache_stats_breakdown[L2_WRBK_ACC][HIT_RESERVED] = 0
	L2_cache_stats_breakdown[L2_WRBK_ACC][MISS] = 0
	L2_cache_stats_breakdown[L2_WRBK_ACC][RESERVATION_FAIL] = 0
	L2_cache_stats_breakdown[L2_WRBK_ACC][SECTOR_MISS] = 0
	L2_cache_stats_breakdown[INST_ACC_R][HIT] = 1120
	L2_cache_stats_breakdown[INST_ACC_R][HIT_RESERVED] = 120
	L2_cache_stats_breakdown[INST_ACC_R][MISS] = 10
	L2_cache_stats_breakdown[INST_ACC_R][RESERVATION_FAIL] = 1199
	L2_cache_stats_breakdown[INST_ACC_R][SECTOR_MISS] = 30
	L2_cache_stats_breakdown[L1_WR_ALLOC_R][HIT] = 0
	L2_cache_stats_breakdown[L1_WR_ALLOC_R][HIT_RESERVED] = 0
	L2_cache_stats_breakdown[L1_WR_ALLOC_R][MISS] = 0
	L2_cache_stats_breakdown[L1_WR_ALLOC_R][RESERVATION_FAIL] = 0
	L2_cache_stats_breakdown[L1_WR_ALLOC_R][SECTOR_MISS] = 0
	L2_cache_stats_breakdown[L2_WR_ALLOC_R][HIT] = 0
	L2_cache_stats_breakdown[L2_WR_ALLOC_R][HIT_RESERVED] = 0
	L2_cache_stats_breakdown[L2_WR_ALLOC_R][MISS] = 0
	L2_cache_stats_breakdown[L2_WR_ALLOC_R][RESERVATION_FAIL] = 0
	L2_cache_stats_breakdown[L2_WR_ALLOC_R][SECTOR_MISS] = 0
	L2_cache_stats_breakdown[GLOBAL_ACC_R][TOTAL_ACCESS] = 463415
	L2_cache_stats_breakdown[CONST_ACC_R][TOTAL_ACCESS] = 64
	L2_cache_stats_breakdown[GLOBAL_ACC_W][TOTAL_ACCESS] = 524294
	L2_cache_stats_breakdown[INST_ACC_R][TOTAL_ACCESS] = 1280
L2_total_cache_reservation_fail_breakdown:
	L2_cache_stats_fail_breakdown[GLOBAL_ACC_R][MSHR_MERGE_ENRTY_FAIL] = 129
	L2_cache_stats_fail_breakdown[CONST_ACC_R][MSHR_MERGE_ENRTY_FAIL] = 162
	L2_cache_stats_fail_breakdown[INST_ACC_R][MSHR_MERGE_ENRTY_FAIL] = 1199
L2_cache_data_port_util = 0.089
L2_cache_fill_port_util = 0.029

icnt_total_pkts_mem_to_simt=989053
icnt_total_pkts_simt_to_mem=988061
LD_mem_lat_dist  0 0 0 0 0 0 0 0 0 0 0 0 0 0 0 0 0 0 0 0 0 0 0 0 0 0 0
ST_mem_lat_dist  0 0 0 0 0 0 0 0 0 0 0 0 0 0 0 0 0 0 0 0 0 0 0 0 0 0 0
----------------------------Interconnect-DETAILS--------------------------------
Class 0:
Packet latency average = 146.539
	minimum = 5
	maximum = 645
Network latency average = 112.55
	minimum = 5
	maximum = 619
Slowest packet = 704407
Flit latency average = 112.55
	minimum = 5
	maximum = 619
Slowest flit = 1973328
Fragmentation average = 0
	minimum = 0
	maximum = 0
Injected packet rate average = 0.293569
	minimum = 0.182813 (at node 57)
	maximum = 0.751199 (at node 15)
Accepted packet rate average = 0.293569
	minimum = 0.182813 (at node 57)
	maximum = 0.751642 (at node 15)
Injected flit rate average = 0.293569
	minimum = 0.182813 (at node 57)
	maximum = 0.751199 (at node 15)
Accepted flit rate average= 0.293569
	minimum = 0.182813 (at node 57)
	maximum = 0.751642 (at node 15)
Injected packet length average = 1
Accepted packet length average = 1
Total in-flight flits = 0 (0 measured)
====== Overall Traffic Statistics ======
====== Traffic class 0 ======
Packet latency average = 86.2731 (2 samples)
	minimum = 5 (2 samples)
	maximum = 502.5 (2 samples)
Network latency average = 62.071 (2 samples)
	minimum = 5 (2 samples)
	maximum = 423.5 (2 samples)
Flit latency average = 62.071 (2 samples)
	minimum = 5 (2 samples)
	maximum = 423.5 (2 samples)
Fragmentation average = 0 (2 samples)
	minimum = 0 (2 samples)
	maximum = 0 (2 samples)
Injected packet rate average = 0.208297 (2 samples)
	minimum = 0.129705 (2 samples)
	maximum = 0.529325 (2 samples)
Accepted packet rate average = 0.208297 (2 samples)
	minimum = 0.129705 (2 samples)
	maximum = 0.529812 (2 samples)
Injected flit rate average = 0.208297 (2 samples)
	minimum = 0.129705 (2 samples)
	maximum = 0.529325 (2 samples)
Accepted flit rate average = 0.208297 (2 samples)
	minimum = 0.129705 (2 samples)
	maximum = 0.529812 (2 samples)
Injected packet size average = 1 (2 samples)
Accepted packet size average = 1 (2 samples)
Hops average = 1 (2 samples)
----------------------------END-of-Interconnect-DETAILS-------------------------


gpgpu_simulation_time = 0 days, 0 hrs, 13 min, 43 sec (823 sec)
gpgpu_simulation_rate = 196289 (inst/sec)
gpgpu_simulation_rate = 152 (cycle/sec)
Training done
GPGPU-Sim: *** exit detected ***
