

        *** GPGPU-Sim Simulator Version 4.0.0  [build gpgpu-sim_git-commit-_modified_] ***


GPGPU-Sim PTX: simulation mode 0 (can change with PTX_SIM_MODE_FUNC environment variable:
               1=functional simulation only, 0=detailed performance simulator)
GPGPU-Sim PTX: overriding embedded ptx with ptx file (PTX_SIM_USE_PTX_FILE is set)
GPGPU-Sim: Configuration options:

-save_embedded_ptx                      0 # saves ptx files embedded in binary as <n>.ptx
-keep                                   0 # keep intermediate files created by GPGPU-Sim when interfacing with external programs
-gpgpu_ptx_save_converted_ptxplus                    0 # Saved converted ptxplus to a file
-gpgpu_occupancy_sm_number                   70 # The SM number to pass to ptxas when getting register usage for computing GPU occupancy. This parameter is required in the config.
-ptx_opcode_latency_int         4,13,4,5,145 # Opcode latencies for integers <ADD,MAX,MUL,MAD,DIV>Default 1,1,19,25,145
-ptx_opcode_latency_fp          4,13,4,5,39 # Opcode latencies for single precision floating points <ADD,MAX,MUL,MAD,DIV>Default 1,1,1,1,30
-ptx_opcode_latency_dp         8,19,8,8,330 # Opcode latencies for double precision floating points <ADD,MAX,MUL,MAD,DIV>Default 8,8,8,8,335
-ptx_opcode_latency_sfu                  100 # Opcode latencies for SFU instructionsDefault 8
-ptx_opcode_latency_tesnor                   64 # Opcode latencies for Tensor instructionsDefault 64
-ptx_opcode_initiation_int            2,2,2,2,8 # Opcode initiation intervals for integers <ADD,MAX,MUL,MAD,DIV>Default 1,1,4,4,32
-ptx_opcode_initiation_fp            2,2,2,2,4 # Opcode initiation intervals for single precision floating points <ADD,MAX,MUL,MAD,DIV>Default 1,1,1,1,5
-ptx_opcode_initiation_dp          4,4,4,4,130 # Opcode initiation intervals for double precision floating points <ADD,MAX,MUL,MAD,DIV>Default 8,8,8,8,130
-ptx_opcode_initiation_sfu                    8 # Opcode initiation intervals for sfu instructionsDefault 8
-ptx_opcode_initiation_tensor                   64 # Opcode initiation intervals for tensor instructionsDefault 64
-cdp_latency         7200,8000,100,12000,1600 # CDP API latency <cudaStreamCreateWithFlags, cudaGetParameterBufferV2_init_perWarp, cudaGetParameterBufferV2_perKernel, cudaLaunchDeviceV2_init_perWarp, cudaLaunchDevicV2_perKernel>Default 7200,8000,100,12000,1600
-network_mode                           1 # Interconnection network mode
-inter_config_file   config_volta_islip.icnt # Interconnection network config file
-inct_in_buffer_limit                   64 # in_buffer_limit
-inct_out_buffer_limit                   64 # out_buffer_limit
-inct_subnets                           2 # subnets
-gpgpu_ptx_use_cuobjdump                    1 # Use cuobjdump to extract ptx and sass from binaries
-gpgpu_experimental_lib_support                    0 # Try to extract code from cuda libraries [Broken because of unknown cudaGetExportTable]
-checkpoint_option                      0 #  checkpointing flag (0 = no checkpoint)
-checkpoint_kernel                      1 #  checkpointing during execution of which kernel (1- 1st kernel)
-checkpoint_CTA                         0 #  checkpointing after # of CTA (< less than total CTA)
-resume_option                          0 #  resume flag (0 = no resume)
-resume_kernel                          0 #  Resume from which kernel (1= 1st kernel)
-resume_CTA                             0 #  resume from which CTA 
-checkpoint_CTA_t                       0 #  resume from which CTA 
-checkpoint_insn_Y                      0 #  resume from which CTA 
-gpgpu_ptx_convert_to_ptxplus                    0 # Convert SASS (native ISA) to ptxplus and run ptxplus
-gpgpu_ptx_force_max_capability                   70 # Force maximum compute capability
-gpgpu_ptx_inst_debug_to_file                    0 # Dump executed instructions' debug information to file
-gpgpu_ptx_inst_debug_file       inst_debug.txt # Executed instructions' debug output file
-gpgpu_ptx_inst_debug_thread_uid                    1 # Thread UID for executed instructions' debug output
-gpgpu_simd_model                       1 # 1 = post-dominator
-gpgpu_shader_core_pipeline              2048:32 # shader core pipeline config, i.e., {<nthread>:<warpsize>}
-gpgpu_tex_cache:l1  N:16:128:24,L:R:m:N:L,T:128:4,128:2 # per-shader L1 texture cache  (READ-ONLY) config  {<nsets>:<bsize>:<assoc>,<rep>:<wr>:<alloc>:<wr_alloc>,<mshr>:<N>:<merge>,<mq>:<rf>}
-gpgpu_const_cache:l1 N:128:64:8,L:R:f:N:L,S:2:64,4 # per-shader L1 constant memory cache  (READ-ONLY) config  {<nsets>:<bsize>:<assoc>,<rep>:<wr>:<alloc>:<wr_alloc>,<mshr>:<N>:<merge>,<mq>} 
-gpgpu_cache:il1     N:64:128:16,L:R:f:N:L,S:2:48,4 # shader L1 instruction cache config  {<nsets>:<bsize>:<assoc>,<rep>:<wr>:<alloc>:<wr_alloc>,<mshr>:<N>:<merge>,<mq>} 
-gpgpu_cache:dl1     S:4:128:64,L:L:s:N:L,A:256:8,16:0,32 # per-shader L1 data cache config  {<nsets>:<bsize>:<assoc>,<rep>:<wr>:<alloc>:<wr_alloc>,<mshr>:<N>:<merge>,<mq> | none}
-l1_latency                            28 # L1 Hit Latency
-smem_latency                          19 # smem Latency
-gpgpu_cache:dl1PrefL1                 none # per-shader L1 data cache config  {<nsets>:<bsize>:<assoc>,<rep>:<wr>:<alloc>:<wr_alloc>,<mshr>:<N>:<merge>,<mq> | none}
-gpgpu_cache:dl1PrefShared                 none # per-shader L1 data cache config  {<nsets>:<bsize>:<assoc>,<rep>:<wr>:<alloc>:<wr_alloc>,<mshr>:<N>:<merge>,<mq> | none}
-gmem_skip_L1D                          0 # global memory access skip L1D cache (implements -Xptxas -dlcm=cg, default=no skip)
-gpgpu_perfect_mem                      0 # enable perfect memory mode (no cache miss)
-n_regfile_gating_group                    4 # group of lanes that should be read/written together)
-gpgpu_clock_gated_reg_file                    0 # enable clock gated reg file for power calculations
-gpgpu_clock_gated_lanes                    0 # enable clock gated lanes for power calculations
-gpgpu_shader_registers                65536 # Number of registers per shader core. Limits number of concurrent CTAs. (default 8192)
-gpgpu_registers_per_block                 8192 # Maximum number of registers per CTA. (default 8192)
-gpgpu_ignore_resources_limitation                    0 # gpgpu_ignore_resources_limitation (default 0)
-gpgpu_shader_cta                      32 # Maximum number of concurrent CTAs in shader (default 8)
-gpgpu_num_cta_barriers                   16 # Maximum number of named barriers per CTA (default 16)
-gpgpu_n_clusters                      40 # number of processing clusters
-gpgpu_n_cores_per_cluster                    2 # number of simd cores per cluster
-gpgpu_n_cluster_ejection_buffer_size                   32 # number of packets in ejection buffer
-gpgpu_n_ldst_response_buffer_size                    2 # number of response packets in ld/st unit ejection buffer
-gpgpu_shmem_per_block                49152 # Size of shared memory per thread block or CTA (default 48kB)
-gpgpu_shmem_size                   16384 # Size of shared memory per shader core (default 16kB)
-adaptive_volta_cache_config                    1 # adaptive_volta_cache_config
-gpgpu_shmem_size                   98304 # Size of shared memory per shader core (default 16kB)
-gpgpu_shmem_size_PrefL1                16384 # Size of shared memory per shader core (default 16kB)
-gpgpu_shmem_size_PrefShared                16384 # Size of shared memory per shader core (default 16kB)
-gpgpu_shmem_num_banks                   32 # Number of banks in the shared memory in each shader core (default 16)
-gpgpu_shmem_limited_broadcast                    0 # Limit shared memory to do one broadcast per cycle (default on)
-gpgpu_shmem_warp_parts                    1 # Number of portions a warp is divided into for shared memory bank conflict check 
-mem_unit_ports                         4 # The number of memory transactions allowed per core cycle
-gpgpu_shmem_warp_parts                    1 # Number of portions a warp is divided into for shared memory bank conflict check 
-gpgpu_warpdistro_shader                   -1 # Specify which shader core to collect the warp size distribution from
-gpgpu_warp_issue_shader                    0 # Specify which shader core to collect the warp issue distribution from
-gpgpu_local_mem_map                    1 # Mapping from local memory space address to simulated GPU physical address space (default = enabled)
-gpgpu_num_reg_banks                    8 # Number of register banks (default = 8)
-gpgpu_reg_bank_use_warp_id                    0 # Use warp ID in mapping registers to banks (default = off)
-sub_core_model                         1 # Sub Core Volta/Pascal model (default = off)
-enable_specialized_operand_collector                    0 # enable_specialized_operand_collector
-gpgpu_operand_collector_num_units_sp                    4 # number of collector units (default = 4)
-gpgpu_operand_collector_num_units_dp                    0 # number of collector units (default = 0)
-gpgpu_operand_collector_num_units_sfu                    4 # number of collector units (default = 4)
-gpgpu_operand_collector_num_units_int                    0 # number of collector units (default = 0)
-gpgpu_operand_collector_num_units_tensor_core                    4 # number of collector units (default = 4)
-gpgpu_operand_collector_num_units_mem                    2 # number of collector units (default = 2)
-gpgpu_operand_collector_num_units_gen                    8 # number of collector units (default = 0)
-gpgpu_operand_collector_num_in_ports_sp                    1 # number of collector unit in ports (default = 1)
-gpgpu_operand_collector_num_in_ports_dp                    0 # number of collector unit in ports (default = 0)
-gpgpu_operand_collector_num_in_ports_sfu                    1 # number of collector unit in ports (default = 1)
-gpgpu_operand_collector_num_in_ports_int                    0 # number of collector unit in ports (default = 0)
-gpgpu_operand_collector_num_in_ports_tensor_core                    1 # number of collector unit in ports (default = 1)
-gpgpu_operand_collector_num_in_ports_mem                    1 # number of collector unit in ports (default = 1)
-gpgpu_operand_collector_num_in_ports_gen                    8 # number of collector unit in ports (default = 0)
-gpgpu_operand_collector_num_out_ports_sp                    1 # number of collector unit in ports (default = 1)
-gpgpu_operand_collector_num_out_ports_dp                    0 # number of collector unit in ports (default = 0)
-gpgpu_operand_collector_num_out_ports_sfu                    1 # number of collector unit in ports (default = 1)
-gpgpu_operand_collector_num_out_ports_int                    0 # number of collector unit in ports (default = 0)
-gpgpu_operand_collector_num_out_ports_tensor_core                    1 # number of collector unit in ports (default = 1)
-gpgpu_operand_collector_num_out_ports_mem                    1 # number of collector unit in ports (default = 1)
-gpgpu_operand_collector_num_out_ports_gen                    8 # number of collector unit in ports (default = 0)
-gpgpu_coalesce_arch                   60 # Coalescing arch (GT200 = 13, Fermi = 20)
-gpgpu_num_sched_per_core                    4 # Number of warp schedulers per core
-gpgpu_max_insn_issue_per_warp                    1 # Max number of instructions that can be issued per warp in one cycle by scheduler (either 1 or 2)
-gpgpu_dual_issue_diff_exec_units                    1 # should dual issue use two different execution unit resources (Default = 1)
-gpgpu_simt_core_sim_order                    1 # Select the simulation order of cores in a cluster (0=Fix, 1=Round-Robin)
-gpgpu_pipeline_widths 4,4,4,4,4,4,4,4,4,4,8,4,4 # Pipeline widths ID_OC_SP,ID_OC_DP,ID_OC_INT,ID_OC_SFU,ID_OC_MEM,OC_EX_SP,OC_EX_DP,OC_EX_INT,OC_EX_SFU,OC_EX_MEM,EX_WB,ID_OC_TENSOR_CORE,OC_EX_TENSOR_CORE
-gpgpu_tensor_core_avail                    1 # Tensor Core Available (default=0)
-gpgpu_num_sp_units                     4 # Number of SP units (default=1)
-gpgpu_num_dp_units                     4 # Number of DP units (default=0)
-gpgpu_num_int_units                    4 # Number of INT units (default=0)
-gpgpu_num_sfu_units                    4 # Number of SF units (default=1)
-gpgpu_num_tensor_core_units                    4 # Number of tensor_core units (default=1)
-gpgpu_num_mem_units                    1 # Number if ldst units (default=1) WARNING: not hooked up to anything
-gpgpu_scheduler                      gto # Scheduler configuration: < lrr | gto | two_level_active > If two_level_active:<num_active_warps>:<inner_prioritization>:<outer_prioritization>For complete list of prioritization values see shader.h enum scheduler_prioritization_typeDefault: gto
-gpgpu_concurrent_kernel_sm                    0 # Support concurrent kernels on a SM (default = disabled)
-perf_sim_memcpy                        1 # Fill the L2 cache on memcpy
-gpgpu_dram_scheduler                    1 # 0 = fifo, 1 = FR-FCFS (defaul)
-gpgpu_dram_partition_queues          64:64:64:64 # i2$:$2d:d2$:$2i
-l2_ideal                               0 # Use a ideal L2 cache that always hit
-gpgpu_cache:dl2     S:32:128:24,L:B:m:L:L,A:192:4,32:0,32 # unified banked L2 data cache config  {<nsets>:<bsize>:<assoc>,<rep>:<wr>:<alloc>:<wr_alloc>,<mshr>:<N>:<merge>,<mq>}
-gpgpu_cache:dl2_texture_only                    0 # L2 cache used for texture only
-gpgpu_n_mem                           24 # number of memory modules (e.g. memory controllers) in gpu
-gpgpu_n_sub_partition_per_mchannel                    2 # number of memory subpartition in each memory module
-gpgpu_n_mem_per_ctrlr                    1 # number of memory chips per memory controller
-gpgpu_memlatency_stat                   14 # track and display latency statistics 0x2 enables MC, 0x4 enables queue logs
-gpgpu_frfcfs_dram_sched_queue_size                   64 # 0 = unlimited (default); # entries per chip
-gpgpu_dram_return_queue_size                  192 # 0 = unlimited (default); # entries per chip
-gpgpu_dram_buswidth                   16 # default = 4 bytes (8 bytes per cycle at DDR)
-gpgpu_dram_burst_length                    2 # Burst length of each DRAM request (default = 4 data bus cycle)
-dram_data_command_freq_ratio                    2 # Frequency ratio between DRAM data bus and command bus (default = 2 times, i.e. DDR)
-gpgpu_dram_timing_opt nbk=16:CCD=1:RRD=3:RCD=12:RAS=28:RP=12:RC=40: CL=12:WL=2:CDLR=3:WR=10:nbkgrp=4:CCDL=2:RTPL=3 # DRAM timing parameters = {nbk:tCCD:tRRD:tRCD:tRAS:tRP:tRC:CL:WL:tCDLR:tWR:nbkgrp:tCCDL:tRTPL}
-rop_latency                          120 # ROP queue latency (default 85)
-dram_latency                         100 # DRAM latency (default 30)
-dual_bus_interface                     1 # dual_bus_interface (default = 0) 
-dram_bnk_indexing_policy                    0 # dram_bnk_indexing_policy (0 = normal indexing, 1 = Xoring with the higher bits) (Default = 0)
-dram_bnkgrp_indexing_policy                    1 # dram_bnkgrp_indexing_policy (0 = take higher bits, 1 = take lower bits) (Default = 0)
-Seperate_Write_Queue_Enable                    0 # Seperate_Write_Queue_Enable
-Write_Queue_Size                32:28:16 # Write_Queue_Size
-Elimnate_rw_turnaround                    0 # elimnate_rw_turnaround i.e set tWTR and tRTW = 0
-icnt_flit_size                        40 # icnt_flit_size
-gpgpu_mem_addr_mapping dramid@8;00000000.00000000.00000000.00000000.0000RRRR.RRRRRRRR.RBBBCCCB.CCCSSSSS # mapping memory address to dram model {dramid@<start bit>;<memory address map>}
-gpgpu_mem_addr_test                    0 # run sweep test to check address mapping for aliased address
-gpgpu_mem_address_mask                    1 # 0 = old addressing mask, 1 = new addressing mask, 2 = new add. mask + flipped bank sel and chip sel bits
-memory_partition_indexing                    0 # 0 = no indexing, 1 = bitwise xoring, 2 = IPoly, 3 = custom indexing
-gpuwattch_xml_file  gpuwattch_gtx1080Ti_to_volta.xml # GPUWattch XML file
-power_simulation_enabled                    1 # Turn on power simulator (1=On, 0=Off)
-power_per_cycle_dump                    0 # Dump detailed power output each cycle
-power_trace_enabled                    0 # produce a file for the power trace (1=On, 0=Off)
-power_trace_zlevel                     6 # Compression level of the power trace output log (0=no comp, 9=highest)
-steady_power_levels_enabled                    0 # produce a file for the steady power levels (1=On, 0=Off)
-steady_state_definition                  8:4 # allowed deviation:number of samples
-gpgpu_max_cycle                        0 # terminates gpu simulation early (0 = no limit)
-gpgpu_max_insn                         0 # terminates gpu simulation early (0 = no limit)
-gpgpu_max_cta                          0 # terminates gpu simulation early (0 = no limit)
-gpgpu_runtime_stat                   500 # display runtime statistics such as dram utilization {<freq>:<flag>}
-liveness_message_freq                    1 # Minimum number of seconds between simulation liveness messages (0 = always print)
-gpgpu_compute_capability_major                    7 # Major compute capability version number
-gpgpu_compute_capability_minor                    0 # Minor compute capability version number
-gpgpu_flush_l1_cache                    1 # Flush L1 cache at the end of each kernel call
-gpgpu_flush_l2_cache                    0 # Flush L2 cache at the end of each kernel call
-gpgpu_deadlock_detect                    1 # Stop the simulation at deadlock (1=on (default), 0=off)
-gpgpu_ptx_instruction_classification                    0 # if enabled will classify ptx instruction types per kernel (Max 255 kernels now)
-gpgpu_ptx_sim_mode                     0 # Select between Performance (default) or Functional simulation (1)
-gpgpu_clock_domains 1200.0:1200.0:1200.0:850.0 # Clock Domain Frequencies in MhZ {<Core Clock>:<ICNT Clock>:<L2 Clock>:<DRAM Clock>}
-gpgpu_max_concurrent_kernel                    8 # maximum kernels that can run concurrently on GPU
-gpgpu_cflog_interval                    0 # Interval between each snapshot in control flow logger
-visualizer_enabled                     0 # Turn on visualizer output (1=On, 0=Off)
-visualizer_outputfile                 NULL # Specifies the output log file for visualizer
-visualizer_zlevel                      6 # Compression level of the visualizer output log (0=no comp, 9=highest)
-gpgpu_stack_size_limit                 1024 # GPU thread stack size
-gpgpu_heap_size_limit              8388608 # GPU malloc heap size 
-gpgpu_runtime_sync_depth_limit                    2 # GPU device runtime synchronize depth
-gpgpu_runtime_pending_launch_count_limit                 2048 # GPU device runtime pending launch count
-trace_enabled                          0 # Turn on traces
-trace_components                    none # comma seperated list of traces to enable. Complete list found in trace_streams.tup. Default none
-trace_sampling_core                    0 # The core which is printed using CORE_DPRINTF. Default 0
-trace_sampling_memory_partition                   -1 # The memory partition which is printed using MEMPART_DPRINTF. Default -1 (i.e. all)
-enable_ptx_file_line_stats                    1 # Turn on PTX source line statistic profiling. (1 = On)
-ptx_line_stats_filename gpgpu_inst_stats.txt # Output file for PTX source line statistics.
-gpgpu_kernel_launch_latency                    0 # Kernel launch latency in cycles. Default: 0
-gpgpu_cdp_enabled                      0 # Turn on CDP
DRAM Timing Options:
nbk                                    16 # number of banks
CCD                                     1 # column to column delay
RRD                                     3 # minimal delay between activation of rows in different banks
RCD                                    12 # row to column delay
RAS                                    28 # time needed to activate row
RP                                     12 # time needed to precharge (deactivate) row
RC                                     40 # row cycle time
CDLR                                    3 # switching from write to read (changes tWTR)
WR                                     10 # last data-in to row precharge
CL                                     12 # CAS latency
WL                                      2 # Write latency
nbkgrp                                  4 # number of bank groups
CCDL                                    2 # column to column delay between accesses to different bank groups
RTPL                                    3 # read to precharge delay between accesses to different bank groups
Total number of memory sub partition = 48
addr_dec_mask[CHIP]  = 0000000000000000 	high:64 low:0
addr_dec_mask[BK]    = 0000000000007100 	high:15 low:8
addr_dec_mask[ROW]   = 000000000fff8000 	high:28 low:15
addr_dec_mask[COL]   = 0000000000000eff 	high:12 low:0
addr_dec_mask[BURST] = 000000000000001f 	high:5 low:0
sub_partition_id_mask = 0000000000000100
GPGPU-Sim uArch: clock freqs: 1200000000.000000:1200000000.000000:1200000000.000000:850000000.000000
GPGPU-Sim uArch: clock periods: 0.00000000083333333333:0.00000000083333333333:0.00000000083333333333:0.00000000117647058824
*** Initializing Memory Statistics ***
GPGPU-Sim uArch: interconnect node map (shaderID+MemID to icntID)
GPGPU-Sim uArch: Memory nodes ID start from index: 40
GPGPU-Sim uArch:    0   1   2   3   4   5   6   7   8
GPGPU-Sim uArch:    9  10  11  12  13  14  15  16  17
GPGPU-Sim uArch:   18  19  20  21  22  23  24  25  26
GPGPU-Sim uArch:   27  28  29  30  31  32  33  34  35
GPGPU-Sim uArch:   36  37  38  39  40  41  42  43  44
GPGPU-Sim uArch:   45  46  47  48  49  50  51  52  53
GPGPU-Sim uArch:   54  55  56  57  58  59  60  61  62
GPGPU-Sim uArch:   63  64  65  66  67  68  69  70  71
GPGPU-Sim uArch:   72  73  74  75  76  77  78  79  80
GPGPU-Sim uArch:   81  82  83  84  85  86  87
GPGPU-Sim uArch: interconnect node reverse map (icntID to shaderID+MemID)
GPGPU-Sim uArch: Memory nodes start from ID: 40
GPGPU-Sim uArch:    0   1   2   3   4   5   6   7   8
GPGPU-Sim uArch:    9  10  11  12  13  14  15  16  17
GPGPU-Sim uArch:   18  19  20  21  22  23  24  25  26
GPGPU-Sim uArch:   27  28  29  30  31  32  33  34  35
GPGPU-Sim uArch:   36  37  38  39  40  41  42  43  44
GPGPU-Sim uArch:   45  46  47  48  49  50  51  52  53
GPGPU-Sim uArch:   54  55  56  57  58  59  60  61  62
GPGPU-Sim uArch:   63  64  65  66  67  68  69  70  71
GPGPU-Sim uArch:   72  73  74  75  76  77  78  79  80
GPGPU-Sim uArch:   81  82  83  84  85  86  87
06211c170ea0daf7bb83fe24341814b6  /home/seongguk/rodinia_3.1_dev/bin/linux/cuda/backprop
Extracting PTX file and ptxas options    1: backprop.1.sm_30.ptx -arch=sm_30
GPGPU-Sim uArch: performance model initialization complete.
self exe links to: /home/seongguk/rodinia_3.1_dev/bin/linux/cuda/backprop
self exe links to: /home/seongguk/rodinia_3.1_dev/bin/linux/cuda/backprop
9.1
GPGPU-Sim PTX: __cudaRegisterFatBinary, fat_cubin_handle = 1, filename=default
self exe links to: /home/seongguk/rodinia_3.1_dev/bin/linux/cuda/backprop
Running md5sum using "md5sum /home/seongguk/rodinia_3.1_dev/bin/linux/cuda/backprop "
self exe links to: /home/seongguk/rodinia_3.1_dev/bin/linux/cuda/backprop
Extracting specific PTX file named backprop.1.sm_30.ptx 
GPGPU-Sim PTX: __cudaRegisterFunction _Z24bpnn_adjust_weights_cudaPfiS_iS_S_ : hostFun 0x0x402130, fat_cubin_handle = 1
GPGPU-Sim PTX: Parsing backprop.1.sm_30.ptx
GPGPU-Sim PTX: allocating shared region for "_Z22bpnn_layerforward_CUDAPfS_S_S_ii$__cuda_local_var_16807_34_non_const_input_node" from 0x0 to 0x40 (shared memory space)
GPGPU-Sim PTX: allocating shared region for "_Z22bpnn_layerforward_CUDAPfS_S_S_ii$__cuda_local_var_16808_34_non_const_weight_matrix" from 0x80 to 0x480 (shared memory space)
GPGPU-Sim PTX: instruction assembly for function '_Z22bpnn_layerforward_CUDAPfS_S_S_ii'...   done.
GPGPU-Sim PTX: instruction assembly for function '_Z24bpnn_adjust_weights_cudaPfiS_iS_S_'...   done.
GPGPU-Sim PTX: finished parsing EMBEDDED .ptx file backprop.1.sm_30.ptx
GPGPU-Sim PTX: loading globals with explicit initializers... 
GPGPU-Sim PTX: finished loading globals (0 bytes total).
GPGPU-Sim PTX: loading constants with explicit initializers...  done.
GPGPU-Sim PTX: Loading PTXInfo from backprop.1.sm_30.ptx
GPGPU-Sim PTX: Kernel '_Z24bpnn_adjust_weights_cudaPfiS_iS_S_' : regs=21, lmem=0, smem=0, cmem=376
GPGPU-Sim PTX: Kernel '_Z22bpnn_layerforward_CUDAPfS_S_S_ii' : regs=14, lmem=0, smem=1088, cmem=360
GPGPU-Sim PTX: __cudaRegisterFunction _Z22bpnn_layerforward_CUDAPfS_S_S_ii : hostFun 0x0x402040, fat_cubin_handle = 1
Random number generator seed: 7
Input layer size : 65536
Starting training kernel
Performing GPU computation
GPGPU-Sim PTX: Setting up arguments for 8 bytes starting at 0x7ffd8aecc988..
GPGPU-Sim PTX: Setting up arguments for 8 bytes starting at 0x7ffd8aecc980..
GPGPU-Sim PTX: Setting up arguments for 8 bytes starting at 0x7ffd8aecc978..
GPGPU-Sim PTX: Setting up arguments for 8 bytes starting at 0x7ffd8aecc970..
GPGPU-Sim PTX: Setting up arguments for 4 bytes starting at 0x7ffd8aecc96c..
GPGPU-Sim PTX: Setting up arguments for 4 bytes starting at 0x7ffd8aecc968..

GPGPU-Sim PTX: cudaLaunch for 0x0x402040 (mode=performance simulation) on stream 0
GPGPU-Sim PTX: finding reconvergence points for '_Z22bpnn_layerforward_CUDAPfS_S_S_ii'...
GPGPU-Sim PTX: Finding dominators for '_Z22bpnn_layerforward_CUDAPfS_S_S_ii'...
GPGPU-Sim PTX: Finding immediate dominators for '_Z22bpnn_layerforward_CUDAPfS_S_S_ii'...
GPGPU-Sim PTX: Finding postdominators for '_Z22bpnn_layerforward_CUDAPfS_S_S_ii'...
GPGPU-Sim PTX: Finding immediate postdominators for '_Z22bpnn_layerforward_CUDAPfS_S_S_ii'...
GPGPU-Sim PTX: pre-decoding instructions for '_Z22bpnn_layerforward_CUDAPfS_S_S_ii'...
GPGPU-Sim PTX: reconvergence points for _Z22bpnn_layerforward_CUDAPfS_S_S_ii...
GPGPU-Sim PTX:  1 (potential) branch divergence @  PC=0x068 (backprop.1.sm_30.ptx:48) @%p2 bra BB0_2;
GPGPU-Sim PTX:    immediate post dominator      @  PC=0x098 (backprop.1.sm_30.ptx:57) cvta.to.global.u64 %rd1, %rd4;
GPGPU-Sim PTX:  2 (potential) branch divergence @  PC=0x150 (backprop.1.sm_30.ptx:80) @%p3 bra BB0_7;
GPGPU-Sim PTX:    immediate post dominator      @  PC=0x228 (backprop.1.sm_30.ptx:115) setp.eq.s32%p1, %r4, 0;
GPGPU-Sim PTX:  3 (potential) branch divergence @  PC=0x1a0 (backprop.1.sm_30.ptx:93) @%p4 bra BB0_6;
GPGPU-Sim PTX:    immediate post dominator      @  PC=0x200 (backprop.1.sm_30.ptx:108) bar.sync 0;
GPGPU-Sim PTX:  4 (potential) branch divergence @  PC=0x220 (backprop.1.sm_30.ptx:112) @%p5 bra BB0_4;
GPGPU-Sim PTX:    immediate post dominator      @  PC=0x228 (backprop.1.sm_30.ptx:115) setp.eq.s32%p1, %r4, 0;
GPGPU-Sim PTX:  5 (potential) branch divergence @  PC=0x248 (backprop.1.sm_30.ptx:119) @!%p1 bra BB0_9;
GPGPU-Sim PTX:    immediate post dominator      @  PC=0x290 (backprop.1.sm_30.ptx:132) ret;
GPGPU-Sim PTX:  6 (potential) branch divergence @  PC=0x250 (backprop.1.sm_30.ptx:120) bra.uni BB0_8;
GPGPU-Sim PTX:    immediate post dominator      @  PC=0x258 (backprop.1.sm_30.ptx:123) cvta.to.global.u64 %rd10, %rd5;
GPGPU-Sim PTX: ... end of reconvergence points for _Z22bpnn_layerforward_CUDAPfS_S_S_ii
GPGPU-Sim PTX: ... done pre-decoding instructions for '_Z22bpnn_layerforward_CUDAPfS_S_S_ii'.
GPGPU-Sim PTX: pushing kernel '_Z22bpnn_layerforward_CUDAPfS_S_S_ii' to stream 0, gridDim= (1,4096,1) blockDim = (16,16,1) 
GPGPU-Sim uArch: Shader 0 bind to kernel 1 '_Z22bpnn_layerforward_CUDAPfS_S_S_ii'
GPGPU-Sim uArch: CTA/core = 8, limited by: threads
GPGPU-Sim: Reconfigure L1 cache in Volta Archi to 112KB
GPGPU-Sim uArch: Shader 2 bind to kernel 1 '_Z22bpnn_layerforward_CUDAPfS_S_S_ii'
GPGPU-Sim uArch: Shader 4 bind to kernel 1 '_Z22bpnn_layerforward_CUDAPfS_S_S_ii'
GPGPU-Sim uArch: Shader 6 bind to kernel 1 '_Z22bpnn_layerforward_CUDAPfS_S_S_ii'
GPGPU-Sim uArch: Shader 8 bind to kernel 1 '_Z22bpnn_layerforward_CUDAPfS_S_S_ii'
GPGPU-Sim uArch: Shader 10 bind to kernel 1 '_Z22bpnn_layerforward_CUDAPfS_S_S_ii'
GPGPU-Sim uArch: Shader 12 bind to kernel 1 '_Z22bpnn_layerforward_CUDAPfS_S_S_ii'
GPGPU-Sim uArch: Shader 14 bind to kernel 1 '_Z22bpnn_layerforward_CUDAPfS_S_S_ii'
GPGPU-Sim uArch: Shader 16 bind to kernel 1 '_Z22bpnn_layerforward_CUDAPfS_S_S_ii'
GPGPU-Sim uArch: Shader 18 bind to kernel 1 '_Z22bpnn_layerforward_CUDAPfS_S_S_ii'
GPGPU-Sim uArch: Shader 20 bind to kernel 1 '_Z22bpnn_layerforward_CUDAPfS_S_S_ii'
GPGPU-Sim uArch: Shader 22 bind to kernel 1 '_Z22bpnn_layerforward_CUDAPfS_S_S_ii'
GPGPU-Sim uArch: Shader 24 bind to kernel 1 '_Z22bpnn_layerforward_CUDAPfS_S_S_ii'
GPGPU-Sim uArch: Shader 26 bind to kernel 1 '_Z22bpnn_layerforward_CUDAPfS_S_S_ii'
GPGPU-Sim uArch: Shader 28 bind to kernel 1 '_Z22bpnn_layerforward_CUDAPfS_S_S_ii'
GPGPU-Sim uArch: Shader 30 bind to kernel 1 '_Z22bpnn_layerforward_CUDAPfS_S_S_ii'
GPGPU-Sim uArch: Shader 32 bind to kernel 1 '_Z22bpnn_layerforward_CUDAPfS_S_S_ii'
GPGPU-Sim uArch: Shader 34 bind to kernel 1 '_Z22bpnn_layerforward_CUDAPfS_S_S_ii'
GPGPU-Sim uArch: Shader 36 bind to kernel 1 '_Z22bpnn_layerforward_CUDAPfS_S_S_ii'
GPGPU-Sim uArch: Shader 38 bind to kernel 1 '_Z22bpnn_layerforward_CUDAPfS_S_S_ii'
GPGPU-Sim uArch: Shader 40 bind to kernel 1 '_Z22bpnn_layerforward_CUDAPfS_S_S_ii'
GPGPU-Sim uArch: Shader 42 bind to kernel 1 '_Z22bpnn_layerforward_CUDAPfS_S_S_ii'
GPGPU-Sim uArch: Shader 44 bind to kernel 1 '_Z22bpnn_layerforward_CUDAPfS_S_S_ii'
GPGPU-Sim uArch: Shader 46 bind to kernel 1 '_Z22bpnn_layerforward_CUDAPfS_S_S_ii'
GPGPU-Sim uArch: Shader 48 bind to kernel 1 '_Z22bpnn_layerforward_CUDAPfS_S_S_ii'
GPGPU-Sim uArch: Shader 50 bind to kernel 1 '_Z22bpnn_layerforward_CUDAPfS_S_S_ii'
GPGPU-Sim uArch: Shader 52 bind to kernel 1 '_Z22bpnn_layerforward_CUDAPfS_S_S_ii'
GPGPU-Sim uArch: Shader 54 bind to kernel 1 '_Z22bpnn_layerforward_CUDAPfS_S_S_ii'
GPGPU-Sim uArch: Shader 56 bind to kernel 1 '_Z22bpnn_layerforward_CUDAPfS_S_S_ii'
GPGPU-Sim uArch: Shader 58 bind to kernel 1 '_Z22bpnn_layerforward_CUDAPfS_S_S_ii'
GPGPU-Sim uArch: Shader 60 bind to kernel 1 '_Z22bpnn_layerforward_CUDAPfS_S_S_ii'
GPGPU-Sim uArch: Shader 62 bind to kernel 1 '_Z22bpnn_layerforward_CUDAPfS_S_S_ii'
GPGPU-Sim uArch: Shader 64 bind to kernel 1 '_Z22bpnn_layerforward_CUDAPfS_S_S_ii'
GPGPU-Sim uArch: Shader 66 bind to kernel 1 '_Z22bpnn_layerforward_CUDAPfS_S_S_ii'
GPGPU-Sim uArch: Shader 68 bind to kernel 1 '_Z22bpnn_layerforward_CUDAPfS_S_S_ii'
GPGPU-Sim uArch: Shader 70 bind to kernel 1 '_Z22bpnn_layerforward_CUDAPfS_S_S_ii'
GPGPU-Sim uArch: Shader 72 bind to kernel 1 '_Z22bpnn_layerforward_CUDAPfS_S_S_ii'
GPGPU-Sim uArch: Shader 74 bind to kernel 1 '_Z22bpnn_layerforward_CUDAPfS_S_S_ii'
GPGPU-Sim uArch: Shader 76 bind to kernel 1 '_Z22bpnn_layerforward_CUDAPfS_S_S_ii'
GPGPU-Sim uArch: Shader 78 bind to kernel 1 '_Z22bpnn_layerforward_CUDAPfS_S_S_ii'
GPGPU-Sim uArch: Shader 1 bind to kernel 1 '_Z22bpnn_layerforward_CUDAPfS_S_S_ii'
GPGPU-Sim uArch: Shader 3 bind to kernel 1 '_Z22bpnn_layerforward_CUDAPfS_S_S_ii'
GPGPU-Sim uArch: Shader 5 bind to kernel 1 '_Z22bpnn_layerforward_CUDAPfS_S_S_ii'
GPGPU-Sim uArch: Shader 7 bind to kernel 1 '_Z22bpnn_layerforward_CUDAPfS_S_S_ii'
GPGPU-Sim uArch: Shader 9 bind to kernel 1 '_Z22bpnn_layerforward_CUDAPfS_S_S_ii'
GPGPU-Sim uArch: Shader 11 bind to kernel 1 '_Z22bpnn_layerforward_CUDAPfS_S_S_ii'
GPGPU-Sim uArch: Shader 13 bind to kernel 1 '_Z22bpnn_layerforward_CUDAPfS_S_S_ii'
GPGPU-Sim uArch: Shader 15 bind to kernel 1 '_Z22bpnn_layerforward_CUDAPfS_S_S_ii'
GPGPU-Sim uArch: Shader 17 bind to kernel 1 '_Z22bpnn_layerforward_CUDAPfS_S_S_ii'
GPGPU-Sim uArch: Shader 19 bind to kernel 1 '_Z22bpnn_layerforward_CUDAPfS_S_S_ii'
GPGPU-Sim uArch: Shader 21 bind to kernel 1 '_Z22bpnn_layerforward_CUDAPfS_S_S_ii'
GPGPU-Sim uArch: Shader 23 bind to kernel 1 '_Z22bpnn_layerforward_CUDAPfS_S_S_ii'
GPGPU-Sim uArch: Shader 25 bind to kernel 1 '_Z22bpnn_layerforward_CUDAPfS_S_S_ii'
GPGPU-Sim uArch: Shader 27 bind to kernel 1 '_Z22bpnn_layerforward_CUDAPfS_S_S_ii'
GPGPU-Sim uArch: Shader 29 bind to kernel 1 '_Z22bpnn_layerforward_CUDAPfS_S_S_ii'
GPGPU-Sim uArch: Shader 31 bind to kernel 1 '_Z22bpnn_layerforward_CUDAPfS_S_S_ii'
GPGPU-Sim uArch: Shader 33 bind to kernel 1 '_Z22bpnn_layerforward_CUDAPfS_S_S_ii'
GPGPU-Sim uArch: Shader 35 bind to kernel 1 '_Z22bpnn_layerforward_CUDAPfS_S_S_ii'
GPGPU-Sim uArch: Shader 37 bind to kernel 1 '_Z22bpnn_layerforward_CUDAPfS_S_S_ii'
GPGPU-Sim uArch: Shader 39 bind to kernel 1 '_Z22bpnn_layerforward_CUDAPfS_S_S_ii'
GPGPU-Sim uArch: Shader 41 bind to kernel 1 '_Z22bpnn_layerforward_CUDAPfS_S_S_ii'
GPGPU-Sim uArch: Shader 43 bind to kernel 1 '_Z22bpnn_layerforward_CUDAPfS_S_S_ii'
GPGPU-Sim uArch: Shader 45 bind to kernel 1 '_Z22bpnn_layerforward_CUDAPfS_S_S_ii'
GPGPU-Sim uArch: Shader 47 bind to kernel 1 '_Z22bpnn_layerforward_CUDAPfS_S_S_ii'
GPGPU-Sim uArch: Shader 49 bind to kernel 1 '_Z22bpnn_layerforward_CUDAPfS_S_S_ii'
GPGPU-Sim uArch: Shader 51 bind to kernel 1 '_Z22bpnn_layerforward_CUDAPfS_S_S_ii'
GPGPU-Sim uArch: Shader 53 bind to kernel 1 '_Z22bpnn_layerforward_CUDAPfS_S_S_ii'
GPGPU-Sim uArch: Shader 55 bind to kernel 1 '_Z22bpnn_layerforward_CUDAPfS_S_S_ii'
GPGPU-Sim uArch: Shader 57 bind to kernel 1 '_Z22bpnn_layerforward_CUDAPfS_S_S_ii'
GPGPU-Sim uArch: Shader 59 bind to kernel 1 '_Z22bpnn_layerforward_CUDAPfS_S_S_ii'
GPGPU-Sim uArch: Shader 61 bind to kernel 1 '_Z22bpnn_layerforward_CUDAPfS_S_S_ii'
GPGPU-Sim uArch: Shader 63 bind to kernel 1 '_Z22bpnn_layerforward_CUDAPfS_S_S_ii'
GPGPU-Sim uArch: Shader 65 bind to kernel 1 '_Z22bpnn_layerforward_CUDAPfS_S_S_ii'
GPGPU-Sim uArch: Shader 67 bind to kernel 1 '_Z22bpnn_layerforward_CUDAPfS_S_S_ii'
GPGPU-Sim uArch: Shader 69 bind to kernel 1 '_Z22bpnn_layerforward_CUDAPfS_S_S_ii'
GPGPU-Sim uArch: Shader 71 bind to kernel 1 '_Z22bpnn_layerforward_CUDAPfS_S_S_ii'
GPGPU-Sim uArch: Shader 73 bind to kernel 1 '_Z22bpnn_layerforward_CUDAPfS_S_S_ii'
GPGPU-Sim uArch: Shader 75 bind to kernel 1 '_Z22bpnn_layerforward_CUDAPfS_S_S_ii'
GPGPU-Sim uArch: Shader 77 bind to kernel 1 '_Z22bpnn_layerforward_CUDAPfS_S_S_ii'
GPGPU-Sim uArch: Shader 79 bind to kernel 1 '_Z22bpnn_layerforward_CUDAPfS_S_S_ii'
Destroy streams for kernel 1: size 0
kernel_name = _Z22bpnn_layerforward_CUDAPfS_S_S_ii 
kernel_launch_uid = 1 
gpu_sim_cycle = 33009
gpu_sim_insn = 104923136
gpu_ipc =    3178.6221
gpu_tot_sim_cycle = 33009
gpu_tot_sim_insn = 104923136
gpu_tot_ipc =    3178.6221
gpu_tot_issued_cta = 4096
gpu_occupancy = 95.0801% 
gpu_tot_occupancy = 95.0801% 
max_total_param_size = 0
gpu_stall_dramfull = 1265
gpu_stall_icnt2sh    = 0
partiton_level_parallism =      10.6767
partiton_level_parallism_total  =      10.6767
partiton_level_parallism_util =      13.7339
partiton_level_parallism_util_total  =      13.7339
L2_BW  =     411.7521 GB/Sec
L2_BW_total  =     411.7521 GB/Sec
gpu_total_sim_rate=194662

========= Core cache stats =========
L1I_cache:
	L1I_total_cache_accesses = 2203648
	L1I_total_cache_misses = 22091
	L1I_total_cache_miss_rate = 0.0100
	L1I_total_cache_pending_hits = 0
	L1I_total_cache_reservation_fails = 143230
L1D_cache:
	L1D_cache_core[0]: Access = 10094, Miss = 6492, Miss_rate = 0.643, Pending_hits = 0, Reservation_fails = 0
	L1D_cache_core[1]: Access = 10094, Miss = 6496, Miss_rate = 0.644, Pending_hits = 0, Reservation_fails = 0
	L1D_cache_core[2]: Access = 9996, Miss = 6432, Miss_rate = 0.643, Pending_hits = 0, Reservation_fails = 0
	L1D_cache_core[3]: Access = 10094, Miss = 6489, Miss_rate = 0.643, Pending_hits = 0, Reservation_fails = 0
	L1D_cache_core[4]: Access = 9898, Miss = 6364, Miss_rate = 0.643, Pending_hits = 0, Reservation_fails = 0
	L1D_cache_core[5]: Access = 9996, Miss = 6427, Miss_rate = 0.643, Pending_hits = 0, Reservation_fails = 0
	L1D_cache_core[6]: Access = 10192, Miss = 6557, Miss_rate = 0.643, Pending_hits = 0, Reservation_fails = 0
	L1D_cache_core[7]: Access = 10388, Miss = 6682, Miss_rate = 0.643, Pending_hits = 0, Reservation_fails = 0
	L1D_cache_core[8]: Access = 9898, Miss = 6368, Miss_rate = 0.643, Pending_hits = 0, Reservation_fails = 0
	L1D_cache_core[9]: Access = 10094, Miss = 6496, Miss_rate = 0.644, Pending_hits = 0, Reservation_fails = 0
	L1D_cache_core[10]: Access = 9702, Miss = 6247, Miss_rate = 0.644, Pending_hits = 0, Reservation_fails = 0
	L1D_cache_core[11]: Access = 9898, Miss = 6368, Miss_rate = 0.643, Pending_hits = 0, Reservation_fails = 0
	L1D_cache_core[12]: Access = 10094, Miss = 6492, Miss_rate = 0.643, Pending_hits = 0, Reservation_fails = 0
	L1D_cache_core[13]: Access = 10094, Miss = 6495, Miss_rate = 0.643, Pending_hits = 0, Reservation_fails = 0
	L1D_cache_core[14]: Access = 10192, Miss = 6557, Miss_rate = 0.643, Pending_hits = 0, Reservation_fails = 0
	L1D_cache_core[15]: Access = 10094, Miss = 6497, Miss_rate = 0.644, Pending_hits = 0, Reservation_fails = 0
	L1D_cache_core[16]: Access = 10192, Miss = 6561, Miss_rate = 0.644, Pending_hits = 0, Reservation_fails = 0
	L1D_cache_core[17]: Access = 9898, Miss = 6369, Miss_rate = 0.643, Pending_hits = 0, Reservation_fails = 0
	L1D_cache_core[18]: Access = 9898, Miss = 6366, Miss_rate = 0.643, Pending_hits = 0, Reservation_fails = 0
	L1D_cache_core[19]: Access = 9996, Miss = 6429, Miss_rate = 0.643, Pending_hits = 0, Reservation_fails = 0
	L1D_cache_core[20]: Access = 10388, Miss = 6679, Miss_rate = 0.643, Pending_hits = 0, Reservation_fails = 0
	L1D_cache_core[21]: Access = 10290, Miss = 6618, Miss_rate = 0.643, Pending_hits = 0, Reservation_fails = 0
	L1D_cache_core[22]: Access = 9800, Miss = 6307, Miss_rate = 0.644, Pending_hits = 0, Reservation_fails = 0
	L1D_cache_core[23]: Access = 10192, Miss = 6558, Miss_rate = 0.643, Pending_hits = 0, Reservation_fails = 0
	L1D_cache_core[24]: Access = 9800, Miss = 6305, Miss_rate = 0.643, Pending_hits = 0, Reservation_fails = 0
	L1D_cache_core[25]: Access = 10094, Miss = 6492, Miss_rate = 0.643, Pending_hits = 0, Reservation_fails = 0
	L1D_cache_core[26]: Access = 10192, Miss = 6559, Miss_rate = 0.644, Pending_hits = 0, Reservation_fails = 0
	L1D_cache_core[27]: Access = 9702, Miss = 6248, Miss_rate = 0.644, Pending_hits = 0, Reservation_fails = 0
	L1D_cache_core[28]: Access = 10486, Miss = 6747, Miss_rate = 0.643, Pending_hits = 0, Reservation_fails = 0
	L1D_cache_core[29]: Access = 10388, Miss = 6686, Miss_rate = 0.644, Pending_hits = 0, Reservation_fails = 0
	L1D_cache_core[30]: Access = 9996, Miss = 6429, Miss_rate = 0.643, Pending_hits = 0, Reservation_fails = 0
	L1D_cache_core[31]: Access = 9898, Miss = 6364, Miss_rate = 0.643, Pending_hits = 0, Reservation_fails = 0
	L1D_cache_core[32]: Access = 10094, Miss = 6493, Miss_rate = 0.643, Pending_hits = 0, Reservation_fails = 0
	L1D_cache_core[33]: Access = 9996, Miss = 6426, Miss_rate = 0.643, Pending_hits = 0, Reservation_fails = 0
	L1D_cache_core[34]: Access = 9702, Miss = 6241, Miss_rate = 0.643, Pending_hits = 0, Reservation_fails = 0
	L1D_cache_core[35]: Access = 9702, Miss = 6244, Miss_rate = 0.644, Pending_hits = 0, Reservation_fails = 0
	L1D_cache_core[36]: Access = 9702, Miss = 6245, Miss_rate = 0.644, Pending_hits = 0, Reservation_fails = 0
	L1D_cache_core[37]: Access = 10094, Miss = 6498, Miss_rate = 0.644, Pending_hits = 0, Reservation_fails = 0
	L1D_cache_core[38]: Access = 10192, Miss = 6555, Miss_rate = 0.643, Pending_hits = 0, Reservation_fails = 0
	L1D_cache_core[39]: Access = 9898, Miss = 6364, Miss_rate = 0.643, Pending_hits = 0, Reservation_fails = 0
	L1D_total_cache_accesses = 401408
	L1D_total_cache_misses = 258242
	L1D_total_cache_miss_rate = 0.6433
	L1D_total_cache_pending_hits = 0
	L1D_total_cache_reservation_fails = 0
	L1D_cache_data_port_util = 0.014
	L1D_cache_fill_port_util = 0.015
L1C_cache:
	L1C_total_cache_accesses = 131072
	L1C_total_cache_misses = 5120
	L1C_total_cache_miss_rate = 0.0391
	L1C_total_cache_pending_hits = 0
	L1C_total_cache_reservation_fails = 120524
L1T_cache:
	L1T_total_cache_accesses = 0
	L1T_total_cache_misses = 0
	L1T_total_cache_pending_hits = 0
	L1T_total_cache_reservation_fails = 0

Total_core_cache_stats:
	Total_core_cache_stats_breakdown[GLOBAL_ACC_R][HIT] = 1
	Total_core_cache_stats_breakdown[GLOBAL_ACC_R][HIT_RESERVED] = 0
	Total_core_cache_stats_breakdown[GLOBAL_ACC_R][MISS] = 107544
	Total_core_cache_stats_breakdown[GLOBAL_ACC_R][RESERVATION_FAIL] = 0
	Total_core_cache_stats_breakdown[GLOBAL_ACC_R][SECTOR_MISS] = 97255
	Total_core_cache_stats_breakdown[LOCAL_ACC_R][HIT] = 0
	Total_core_cache_stats_breakdown[LOCAL_ACC_R][HIT_RESERVED] = 0
	Total_core_cache_stats_breakdown[LOCAL_ACC_R][MISS] = 0
	Total_core_cache_stats_breakdown[LOCAL_ACC_R][RESERVATION_FAIL] = 0
	Total_core_cache_stats_breakdown[LOCAL_ACC_R][SECTOR_MISS] = 0
	Total_core_cache_stats_breakdown[CONST_ACC_R][HIT] = 125952
	Total_core_cache_stats_breakdown[CONST_ACC_R][HIT_RESERVED] = 0
	Total_core_cache_stats_breakdown[CONST_ACC_R][MISS] = 5120
	Total_core_cache_stats_breakdown[CONST_ACC_R][RESERVATION_FAIL] = 120524
	Total_core_cache_stats_breakdown[CONST_ACC_R][SECTOR_MISS] = 0
	Total_core_cache_stats_breakdown[TEXTURE_ACC_R][HIT] = 0
	Total_core_cache_stats_breakdown[TEXTURE_ACC_R][HIT_RESERVED] = 0
	Total_core_cache_stats_breakdown[TEXTURE_ACC_R][MISS] = 0
	Total_core_cache_stats_breakdown[TEXTURE_ACC_R][RESERVATION_FAIL] = 0
	Total_core_cache_stats_breakdown[TEXTURE_ACC_R][SECTOR_MISS] = 0
	Total_core_cache_stats_breakdown[GLOBAL_ACC_W][HIT] = 143165
	Total_core_cache_stats_breakdown[GLOBAL_ACC_W][HIT_RESERVED] = 0
	Total_core_cache_stats_breakdown[GLOBAL_ACC_W][MISS] = 51072
	Total_core_cache_stats_breakdown[GLOBAL_ACC_W][RESERVATION_FAIL] = 0
	Total_core_cache_stats_breakdown[GLOBAL_ACC_W][SECTOR_MISS] = 2371
	Total_core_cache_stats_breakdown[LOCAL_ACC_W][HIT] = 0
	Total_core_cache_stats_breakdown[LOCAL_ACC_W][HIT_RESERVED] = 0
	Total_core_cache_stats_breakdown[LOCAL_ACC_W][MISS] = 0
	Total_core_cache_stats_breakdown[LOCAL_ACC_W][RESERVATION_FAIL] = 0
	Total_core_cache_stats_breakdown[LOCAL_ACC_W][SECTOR_MISS] = 0
	Total_core_cache_stats_breakdown[L1_WRBK_ACC][HIT] = 0
	Total_core_cache_stats_breakdown[L1_WRBK_ACC][HIT_RESERVED] = 0
	Total_core_cache_stats_breakdown[L1_WRBK_ACC][MISS] = 0
	Total_core_cache_stats_breakdown[L1_WRBK_ACC][RESERVATION_FAIL] = 0
	Total_core_cache_stats_breakdown[L1_WRBK_ACC][SECTOR_MISS] = 0
	Total_core_cache_stats_breakdown[L2_WRBK_ACC][HIT] = 0
	Total_core_cache_stats_breakdown[L2_WRBK_ACC][HIT_RESERVED] = 0
	Total_core_cache_stats_breakdown[L2_WRBK_ACC][MISS] = 0
	Total_core_cache_stats_breakdown[L2_WRBK_ACC][RESERVATION_FAIL] = 0
	Total_core_cache_stats_breakdown[L2_WRBK_ACC][SECTOR_MISS] = 0
	Total_core_cache_stats_breakdown[INST_ACC_R][HIT] = 2181557
	Total_core_cache_stats_breakdown[INST_ACC_R][HIT_RESERVED] = 0
	Total_core_cache_stats_breakdown[INST_ACC_R][MISS] = 22091
	Total_core_cache_stats_breakdown[INST_ACC_R][RESERVATION_FAIL] = 143230
	Total_core_cache_stats_breakdown[INST_ACC_R][SECTOR_MISS] = 0
	Total_core_cache_stats_breakdown[L1_WR_ALLOC_R][HIT] = 0
	Total_core_cache_stats_breakdown[L1_WR_ALLOC_R][HIT_RESERVED] = 0
	Total_core_cache_stats_breakdown[L1_WR_ALLOC_R][MISS] = 0
	Total_core_cache_stats_breakdown[L1_WR_ALLOC_R][RESERVATION_FAIL] = 0
	Total_core_cache_stats_breakdown[L1_WR_ALLOC_R][SECTOR_MISS] = 0
	Total_core_cache_stats_breakdown[L2_WR_ALLOC_R][HIT] = 0
	Total_core_cache_stats_breakdown[L2_WR_ALLOC_R][HIT_RESERVED] = 0
	Total_core_cache_stats_breakdown[L2_WR_ALLOC_R][MISS] = 0
	Total_core_cache_stats_breakdown[L2_WR_ALLOC_R][RESERVATION_FAIL] = 0
	Total_core_cache_stats_breakdown[L2_WR_ALLOC_R][SECTOR_MISS] = 0
	Total_core_cache_stats_breakdown[GLOBAL_ACC_R][TOTAL_ACCESS] = 204800
	Total_core_cache_stats_breakdown[CONST_ACC_R][TOTAL_ACCESS] = 131072
	Total_core_cache_stats_breakdown[GLOBAL_ACC_W][TOTAL_ACCESS] = 196608
	Total_core_cache_stats_breakdown[INST_ACC_R][TOTAL_ACCESS] = 2203648

Total_core_cache_fail_stats:
	Total_core_cache_fail_stats_breakdown[CONST_ACC_R][MSHR_MERGE_ENRTY_FAIL] = 120524
	Total_core_cache_fail_stats_breakdown[INST_ACC_R][MSHR_MERGE_ENRTY_FAIL] = 143230
Shader 0 warp_id issue ditsribution:
warp_id:
0, 1, 2, 3, 4, 5, 6, 7, 8, 9, 10, 11, 12, 13, 14, 15, 16, 17, 18, 19, 20, 21, 22, 23, 24, 25, 26, 27, 28, 29, 30, 31, 32, 33, 34, 35, 36, 37, 38, 39, 40, 41, 42, 43, 44, 45, 46, 47, 48, 49, 50, 51, 52, 53, 54, 55, 56, 57, 58, 59, 60, 61, 62, 63, 
distro:
894, 696, 762, 696, 828, 696, 762, 696, 1043, 812, 889, 812, 966, 812, 889, 812, 1043, 812, 889, 812, 966, 812, 889, 812, 1043, 812, 889, 812, 966, 812, 889, 812, 1043, 812, 889, 812, 966, 812, 889, 812, 1043, 812, 889, 812, 966, 812, 889, 812, 1043, 812, 889, 812, 966, 812, 889, 812, 894, 696, 762, 696, 828, 696, 762, 696, 
gpgpu_n_tot_thrd_icount = 131727360
gpgpu_n_tot_w_icount = 4116480
gpgpu_n_stall_shd_mem = 390860
gpgpu_n_mem_read_local = 0
gpgpu_n_mem_write_local = 0
gpgpu_n_mem_read_global = 155258
gpgpu_n_mem_write_global = 196608
gpgpu_n_mem_texture = 0
gpgpu_n_mem_const = 80
gpgpu_n_load_insn  = 1114112
gpgpu_n_store_insn = 1114112
gpgpu_n_shmem_insn = 8323072
gpgpu_n_sstarr_insn = 0
gpgpu_n_tex_insn = 0
gpgpu_n_const_mem_insn = 0
gpgpu_n_param_mem_insn = 4194304
gpgpu_n_shmem_bkconflict = 0
gpgpu_n_cache_bkconflict = 0
gpgpu_n_intrawarp_mshr_merge = 0
gpgpu_n_cmem_portconflict = 120524
gpgpu_stall_shd_mem[c_mem][resource_stall] = 120524
gpgpu_stall_shd_mem[s_mem][bk_conf] = 0
gpgpu_stall_shd_mem[gl_mem][resource_stall] = 0
gpgpu_stall_shd_mem[gl_mem][coal_stall] = 270336
gpgpu_stall_shd_mem[gl_mem][data_port_stall] = 0
gpu_reg_bank_conflict_stalls = 0
Warp Occupancy Distribution:
Stall:442134	W0_Idle:1265569	W0_Scoreboard:4375457	W1:0	W2:425984	W3:0	W4:0	W5:0	W6:0	W7:0	W8:0	W9:0	W10:0	W11:0	W12:0	W13:0	W14:0	W15:0	W16:675840	W17:0	W18:0	W19:0	W20:0	W21:0	W22:0	W23:0	W24:0	W25:0	W26:0	W27:0	W28:0	W29:0	W30:0	W31:0	W32:3014656
single_issue_nums: WS0:1175552	WS1:950272	WS2:1040384	WS3:950272	
dual_issue_nums: WS0:0	WS1:0	WS2:0	WS3:0	
traffic_breakdown_coretomem[CONST_ACC_R] = 640 {8:80,}
traffic_breakdown_coretomem[GLOBAL_ACC_R] = 1242064 {8:155258,}
traffic_breakdown_coretomem[GLOBAL_ACC_W] = 7864320 {40:196608,}
traffic_breakdown_coretomem[INST_ACC_R] = 3840 {8:480,}
traffic_breakdown_memtocore[CONST_ACC_R] = 6400 {40:160,}
traffic_breakdown_memtocore[GLOBAL_ACC_R] = 6210320 {40:155258,}
traffic_breakdown_memtocore[GLOBAL_ACC_W] = 1572864 {8:196608,}
traffic_breakdown_memtocore[INST_ACC_R] = 76800 {40:1920,}
maxmflatency = 1113 
max_icnt2mem_latency = 676 
maxmrqlatency = 682 
max_icnt2sh_latency = 367 
averagemflatency = 281 
avg_icnt2mem_latency = 118 
avg_mrq_latency = 28 
avg_icnt2sh_latency = 18 
mrq_lat_table:8981 	9587 	6613 	4585 	6372 	8542 	3158 	1609 	639 	11 	0 	0 	0 	0 	0 	0 	0 	0 	0 	0 	0 	0 	0 	0 	0 	0 	0 	0 	0 	0 	0 	0 	
dq_lat_table:0 	0 	0 	0 	0 	0 	0 	0 	0 	0 	0 	0 	0 	0 	0 	0 	0 	0 	0 	0 	0 	0 	0 	0 	0 	0 	0 	0 	0 	0 	0 	0 	
mf_lat_table:0 	0 	0 	0 	0 	0 	0 	177440 	154768 	19779 	39 	0 	0 	0 	0 	0 	0 	0 	0 	0 	0 	0 	0 	0 	0 	0 	0 	0 	0 	0 	0 	0 	
icnt2mem_lat_table:0 	0 	192 	15144 	64850 	71538 	77193 	80577 	41399 	1533 	0 	0 	0 	0 	0 	0 	0 	0 	0 	0 	0 	0 	0 	0 	
icnt2sh_lat_table:0 	0 	171663 	89699 	37382 	31493 	18136 	3385 	268 	0 	0 	0 	0 	0 	0 	0 	0 	0 	0 	0 	0 	0 	0 	0 	
mf_lat_pw_table:0 	0 	0 	0 	0 	0 	0 	33 	24 	1 	0 	0 	0 	0 	0 	0 	0 	0 	0 	0 	0 	0 	0 	0 	0 	0 	0 	0 	0 	0 	0 	0 	
maximum concurrent accesses to same row:
dram[0]:        48        24        48        40        48        48        64        56        52        56        64        64        39        62        64        64 
dram[1]:        48        24        48        40        48        40        64        60        48        56        64        64        32        37        64        64 
dram[2]:        48        24        48        40        48        43        64        64        48        56        64        64        24        32        64        64 
dram[3]:        48        24        48        40        48        32        64        64        48        56        64        64        24        32        64        64 
dram[4]:        48        24        48        40        48        27        64        56        48        56        64        64        27        32        64        64 
dram[5]:        48        24        48        40        48        24        64        64        48        56        64        64        38        32        64        64 
dram[6]:        48        48        48        40        48        24        64        64        48        56        64        64        47        32        64        64 
dram[7]:        44        24        48        40        48        24        64        64        48        56        64        64        45        34        64        64 
dram[8]:        40        24        48        40        48        52        64        64        48        56        64        64        40        64        64        64 
dram[9]:        48        24        48        40        48        45        64        64        48        56        64        64        64        32        64        64 
dram[10]:        16        48        48        40        48        46        64        64        48        56        64        64        32        39        64        64 
dram[11]:        16        48        48        40        48        39        64        64        48        56        64        64        35        24        64        64 
dram[12]:        16        48        48        40        48        43        64        64        48        56        64        64        42        26        64        64 
dram[13]:        16        24        48        40        48        37        64        64        48        56        64        64        40        39        64        64 
dram[14]:        44        24        48        40        42        32        64        64        48        56        64        64        33        55        64        64 
dram[15]:        40        24        48        40        48        39        64        64        48        56        64        64        33        49        64        64 
dram[16]:        40        24        48        40        31        40        64        64        48        56        64        64        32        40        64        64 
dram[17]:        40        24        40        40        31        52        64        64        48        56        64        64        32        40        64        64 
dram[18]:        48        24        48        40        40        54        64        64        56        56        64        64        40        56        64        64 
dram[19]:        24        24        40        40        40        38        56        64        56        56        64        64        41        59        64        64 
dram[20]:        24        24        40        40        40        28        56        64        56        56        64        64        56        44        64        64 
dram[21]:        24        24        40        40        40        36        56        64        56        56        64        64        43        56        64        64 
dram[22]:        24        48        40        40        29        48        60        64        56        56        64        64        40        53        64        64 
dram[23]:        24        48        40        40        48        48        56        64        56        52        64        64        56        53        64        64 
maximum service time to same row:
dram[0]:      7195     16551     16657     16664      7600     12427     16991     16930      6123     12627     17374     17316      7320     13105     18142     19590 
dram[1]:      7183     16569     16664     16781      7614     12417     17004     16945      5350     12641     17350     17330      7270     13114     18147     19601 
dram[2]:      7179     16587     16673     16792      7627     12413     17014     16961      8112     12778     17358     17295      8320     13120     18159     19613 
dram[3]:     16669     16597     16747     16731     12665     12434     17028     17031     12965     12783     17371     17299     13505     13419     19459     19621 
dram[4]:     16525     16610     16757     16744     12688     12425     16983     17025     12973     12709     17378     17306     13357     13433     19467     19792 
dram[5]:     16546     16614     16765     16767     12464     12430     16990     17028     12979     12721     17391     17334     13363     13281     19472     19801 
dram[6]:     16569     16575     16782     16784     12452     12438     17002     17042     12985     12729     17402     17351     13369     13148     19445     19810 
dram[7]:     16600     16572     16740     16738     12468     12434     17017     17056     12833     12742     17417     17413     13417     13141     19443     19816 
dram[8]:     16644     16474     16738     16702     12493     12418     16980     17008     12839     12730     17430     17432     13151     13150     19449     19820 
dram[9]:     16686     16479     16748     16700     12512     12438     16990     16984     12843     12730     17341     17409     13160     13158     19465     19902 
dram[10]:     16686     16577     16712     16713     12490     12492     17007     16980     12856     12750     17285     17406     13162     13164     19476     19911 
dram[11]:     16702     16594     16724     16772     12495     12715     17014     16988     12849     12937     17300     17365     13177     13171     19479     19921 
dram[12]:     16621     16614     16743     16740     12500     12440     17025     16918     12975     12946     17310     17369     13178     13177     19493     19932 
dram[13]:     16551     16638     16778     16714     12509     12435     17122     16915     12994     12958     17307     17382     13175     13186     19507     20141 
dram[14]:     16548     16513     16688     16731     12517     12449     17121     16923     13003     12674     17334     17331     13184     13198     19515     20156 
dram[15]:     16558     16524     16699     16744     12530     12462     17043     16950     12742     12673     17353     17338     13229     13038     19521     20187 
dram[16]:     16563     16522     16706     16757     12538     12473     17014     16981     12740     12961     17362     17347     13239     13049     19625     19984 
dram[17]:      9277     16521     16729     16760     12548     12481     17009     16997     12750     12681     17384     17355     13264     13062     19638     19983 
dram[18]:      9271     16561     16690     16809     12423     12562     17021     17139     12761     12646     17307     17365     13093     13072     19645     19995 
dram[19]:     16449     16566     16630     16820     12420     12574     17029     17153     12640     12665     17312     17321     13099     13097     19544     20005 
dram[20]:     16462     16575     16628     16796     12437     12589     17038     17163     12637     12713     17319     17320     13110     13230     19549     20014 
dram[21]:     16476     16604     16635     16801     12435     12438     17043     16885     12582     12723     17330     17333     13124     13239     19556     20012 
dram[22]:     16486     16620     16651     16816     12493     12433     17197     16904     12596     12733     17295     17344     13076     13250     19566     20022 
dram[23]:     16496     16642     16665     16820     12544     12457     17225     17031     12610     12894     17292     17350     13090     13261     19573     20035 
average row accesses per activate:
dram[0]: 12.363636 34.666668 44.000000 40.000000 17.100000 20.625000 36.500000 31.000000 18.714285 25.799999 35.000000 31.000000 16.444445 20.285715 34.000000 56.000000 
dram[1]: 16.125000 32.000000 42.666668 40.000000 17.200001 20.500000 36.500000 32.000000 17.428572 26.000000 35.000000 31.000000 13.545455 15.777778 42.500000 56.000000 
dram[2]: 13.625000 32.000000 42.666668 40.000000 15.400000 20.500000 36.250000 33.000000 19.333334 26.000000 35.250000 30.500000 13.200000 15.777778 42.500000 39.500000 
dram[3]: 20.500000 32.000000 42.666668 40.000000 15.333333 20.500000 34.250000 33.250000 20.799999 26.000000 33.250000 30.500000 13.333333 17.750000 42.500000 33.000000 
dram[4]: 20.500000 32.000000 42.666668 40.000000 16.222221 16.400000 34.000000 31.000000 20.799999 27.600000 33.000000 30.500000 13.333333 17.750000 42.000000 33.200001 
dram[5]: 20.250000 32.000000 42.666668 40.000000 20.857143 15.200000 34.000000 32.750000 21.000000 26.000000 33.000000 30.500000 13.333333 15.777778 29.333334 34.200001 
dram[6]: 20.500000 24.500000 42.666668 40.000000 16.222221 14.800000 34.000000 32.750000 20.799999 25.600000 33.000000 30.750000 17.142857 15.777778 35.200001 34.000000 
dram[7]: 19.500000 32.000000 42.666668 40.000000 16.222221 14.800000 34.000000 32.500000 20.799999 26.000000 33.500000 31.000000 17.142857 15.777778 34.799999 32.400002 
dram[8]: 18.500000 32.000000 42.666668 40.000000 16.222221 26.333334 33.500000 33.000000 20.799999 25.600000 33.000000 30.750000 17.142857 27.600000 34.000000 32.200001 
dram[9]: 20.500000 32.000000 42.666668 40.000000 16.222221 20.500000 32.500000 33.000000 20.799999 26.000000 33.000000 30.750000 24.000000 14.888889 34.000000 32.200001 
dram[10]: 25.333334 24.500000 42.666668 40.000000 20.285715 20.000000 33.500000 32.250000 21.200001 25.400000 33.000000 31.250000 13.333333 12.272727 34.000000 40.500000 
dram[11]: 26.666666 24.500000 42.666668 40.000000 20.285715 19.500000 30.500000 32.500000 20.400000 23.600000 33.000000 31.000000 13.333333 14.222222 34.000000 41.500000 
dram[12]: 26.666666 24.250000 42.666668 40.000000 17.750000 19.500000 30.500000 32.500000 20.400000 24.000000 33.000000 31.000000 17.142857 14.111111 42.500000 33.200001 
dram[13]: 26.666666 32.000000 42.666668 40.000000 16.444445 14.800000 32.000000 32.750000 20.799999 24.200001 33.000000 31.250000 17.142857 14.111111 43.000000 54.666668 
dram[14]: 19.250000 32.000000 42.666668 40.000000 12.000000 18.500000 34.250000 30.500000 20.799999 23.799999 33.000000 31.000000 13.222222 18.428572 32.599998 33.200001 
dram[15]: 18.500000 32.000000 42.666668 40.000000 14.400000 18.500000 34.750000 30.750000 20.600000 23.799999 33.000000 31.000000 13.222222 11.727273 32.200001 33.000000 
dram[16]: 18.500000 32.000000 42.666668 38.666668 16.625000 19.750000 34.250000 31.000000 20.799999 23.200001 33.250000 31.000000 13.875000 11.818182 32.400002 53.333332 
dram[17]: 15.600000 32.000000 40.000000 40.000000 16.500000 19.750000 34.250000 32.500000 20.799999 23.200001 33.250000 31.250000 13.750000 14.444445 41.500000 40.250000 
dram[18]: 20.200001 32.000000 42.666668 40.000000 16.600000 19.750000 34.750000 32.500000 27.400000 23.200001 33.000000 31.000000 20.285715 18.571428 31.400000 32.400002 
dram[19]: 32.000000 32.000000 40.000000 40.000000 13.750000 19.625000 31.000000 32.250000 27.400000 23.600000 33.000000 31.250000 20.285715 18.428572 54.666668 40.500000 
dram[20]: 32.000000 32.000000 40.000000 40.000000 20.625000 15.200000 31.000000 32.250000 27.400000 23.799999 32.000000 31.250000 20.285715 14.333333 54.666668 31.600000 
dram[21]: 32.000000 30.666666 40.000000 40.000000 16.799999 19.125000 30.000000 32.500000 27.600000 23.400000 31.500000 31.000000 20.285715 18.571428 34.000000 32.400002 
dram[22]: 32.000000 24.500000 40.000000 38.666668 14.000000 24.666666 32.250000 32.500000 27.600000 23.600000 30.750000 31.000000 15.777778 14.222222 54.666668 32.400002 
dram[23]: 32.000000 24.500000 40.000000 40.000000 16.500000 24.666666 31.000000 32.500000 26.600000 21.200001 31.000000 31.000000 20.285715 14.222222 54.666668 32.400002 
average row locality = 50097/1987 = 25.212381
number of total memory accesses made:
dram[0]:         0         0         0         0         0         0         0         0         0         0         0         0         0         0         0         0 
dram[1]:         0         0         0         0         0         0         0         0         0         0         0         0         0         0         0         0 
dram[2]:         0         0         0         0         0         0         0         0         0         0         0         0         0         0         0         0 
dram[3]:         0         0         0         0         0         0         0         0         0         0         0         0         0         0         0         0 
dram[4]:         0         0         0         0         0         0         0         0         0         0         0         0         0         0         0         0 
dram[5]:         0         0         0         0         0         0         0         0         0         0         0         0         0         0         0         0 
dram[6]:         0         0         0         0         0         0         0         0         0         0         0         0         0         0         0         0 
dram[7]:         0         0         0         0         0         0         0         0         0         0         0         0         0         0         0         0 
dram[8]:         0         0         0         0         0         0         0         0         0         0         0         0         0         0         0         0 
dram[9]:         0         0         0         0         0         0         0         0         0         0         0         0         0         0         0         0 
dram[10]:         0         0         0         0         0         0         0         0         0         0         0         0         0         0         0         0 
dram[11]:         0         0         0         0         0         0         0         0         0         0         0         0         0         0         0         0 
dram[12]:         0         0         0         0         0         0         0         0         0         0         0         0         0         0         0         0 
dram[13]:         0         0         0         0         0         0         0         0         0         0         0         0         0         0         0         0 
dram[14]:         0         0         0         0         0         0         0         0         0         0         0         0         0         0         0         0 
dram[15]:         0         0         0         0         0         0         0         0         0         0         0         0         0         0         0         0 
dram[16]:         0         0         0         0         0         0         0         0         0         0         0         0         0         0         0         0 
dram[17]:         0         0         0         0         0         0         0         0         0         0         0         0         0         0         0         0 
dram[18]:         0         0         0         0         0         0         0         0         0         0         0         0         0         0         0         0 
dram[19]:         0         0         0         0         0         0         0         0         0         0         0         0         0         0         0         0 
dram[20]:         0         0         0         0         0         0         0         0         0         0         0         0         0         0         0         0 
dram[21]:         0         0         0         0         0         0         0         0         0         0         0         0         0         0         0         0 
dram[22]:         0         0         0         0         0         0         0         0         0         0         0         0         0         0         0         0 
dram[23]:         0         0         0         0         0         0         0         0         0         0         0         0         0         0         0         0 
total accesses: 0
min_bank_accesses = 0!
min_chip_accesses = 0!
number of total read accesses:
dram[0]:       134       104       132       120       168       160       136       112       124       120       136       120       140       136       168       168 
dram[1]:       128        96       128       120       168       160       136       116       116       120       136       120       140       136       168       168 
dram[2]:       107        96       128       120       152       160       136       120       108       120       136       120       124       136       168       156 
dram[3]:        80        96       128       120       136       160       128       120        96       120       128       120       112       136       168       164 
dram[4]:        80        96       128       120       144       160       128       112        96       128       128       120       112       136       164       164 
dram[5]:        80        96       128       120       144       148       128       120        96       120       128       120       112       136       172       168 
dram[6]:        80        96       128       120       144       144       128       120        96       120       128       120       112       136       172       168 
dram[7]:        76        96       128       120       144       144       128       120        96       120       128       120       112       136       172       160 
dram[8]:        72        96       128       120       144       152       124       120        96       120       128       120       112       132       168       160 
dram[9]:        80        96       128       120       144       160       120       120        96       120       128       120       112       128       168       160 
dram[10]:        76        96       128       120       140       156       124       120        96       120       128       120       112       128       168       160 
dram[11]:        80        96       128       120       140       152       112       120        92       112       128       120       112       120       168       164 
dram[12]:        80        96       128       120       140       152       112       120        92       112       128       120       112       120       168       164 
dram[13]:        80        96       128       120       144       144       120       120        96       112       128       120       112       120       168       164 
dram[14]:        76        96       128       120       140       144       128       112        96       112       128       120       112       120       160       164 
dram[15]:        72        96       128       120       140       144       128       112        96       112       128       120       112       120       160       164 
dram[16]:        72        96       128       116       129       152       128       112        96       112       128       120       104       120       160       160 
dram[17]:        76        96       120       120       128       152       128       120        96       112       128       120       104       120       164       160 
dram[18]:       100        96       128       120       160       152       128       120       128       112       128       120       136       120       156       160 
dram[19]:        96        96       120       120       160       152       112       120       128       112       128       120       136       120       164       160 
dram[20]:        96        96       120       120       160       148       112       120       128       112       124       120       136       120       164       156 
dram[21]:        96        92       120       120       164       148       112       120       128       112       120       120       136       120       168       160 
dram[22]:        96        96       120       116       164       144       116       120       128       112       120       120       136       120       164       160 
dram[23]:        96        96       120       120       160       144       112       120       124       100       120       120       136       120       164       160 
total dram reads = 48366
bank skew: 172/72 = 2.39
chip skew: 2178/1933 = 1.13
number of total write accesses:
dram[0]:         2         0         0         0         3         5        10        12         7         9         4         4         8         6         2         0 
dram[1]:         1         0         0         0         4         4        10        12         6        10         4         4         9         6         2         0 
dram[2]:         2         0         0         0         2         4         9        12         8        10         5         2         8         6         2         2 
dram[3]:         2         0         0         0         2         4         9        13         8        10         5         2         8         6         2         1 
dram[4]:         2         0         0         0         2         4         8        12         8        10         4         2         8         6         4         2 
dram[5]:         1         0         0         0         2         4         8        11         9        10         4         2         8         6         4         3 
dram[6]:         2         2         0         0         2         4         8        11         8         8         4         3         8         6         4         2 
dram[7]:         2         0         0         0         2         4         8        10         8        10         6         4         8         6         2         2 
dram[8]:         2         0         0         0         2         6        10        12         8         8         4         3         8         6         2         1 
dram[9]:         2         0         0         0         2         4        10        12         8        10         4         3         8         6         2         1 
dram[10]:         0         2         0         0         2         4        10         9        10         7         4         5         8         7         2         2 
dram[11]:         0         2         0         0         2         4        10        10        10         6         4         4         8         8         2         2 
dram[12]:         0         1         0         0         2         4        10        10        10         8         4         4         8         7         2         2 
dram[13]:         0         0         0         0         4         4         8        11         8         9         4         5         8         7         4         0 
dram[14]:         1         0         0         0         4         4         9        10         8         7         4         4         7         9         3         2 
dram[15]:         2         0         0         0         4         4        11        11         7         7         4         4         7         9         1         1 
dram[16]:         2         0         0         0         4         6         9        12         8         4         5         4         7        10         2         0 
dram[17]:         2         0         0         0         4         6         9        10         8         4         5         5         6        10         2         1 
dram[18]:         1         0         0         0         6         6        11        10         9         4         4         4         6        10         1         2 
dram[19]:         0         0         0         0         5         5        12         9         9         6         4         5         6         9         0         2 
dram[20]:         0         0         0         0         5         4        12         9         9         7         4         5         6         9         0         2 
dram[21]:         0         0         0         0         4         5         8        10        10         5         6         4         6        10         2         2 
dram[22]:         0         2         0         0         4         4        13        10        10         6         3         4         6         8         0         2 
dram[23]:         0         2         0         0         5         4        12        10         9         6         4         4         6         8         0         2 
total dram writes = 1731
min_bank_accesses = 0!
chip skew: 74/72 = 1.03
average mf latency per bank:
dram[0]:       2684      2889      2307      2395      1447      1460      1535      1737      1863      1840      1852      1985      1759      1835      1516      1478
dram[1]:       2599      3117      2514      2289      1440      1463      1598      1668      2039      1817      1919      1991      1876      1843      1625      1464
dram[2]:       3140      3231      2430      2465      1617      1449      1585      1575      2063      1776      1885      2037      2050      1848      1580      1638
dram[3]:       3745      3295      2174      2470      1703      1460      1622      1627      2102      1759      1871      1999      2124      1899      1469      1606
dram[4]:       3729      3307      2208      2440      1614      1464      1683      1682      2242      1656      1898      1963      2120      1916      1504      1601
dram[5]:       3684      3216      2200      2426      1594      1557      1675      1591      2237      1772      1837      1930      2094      1884      1456      1539
dram[6]:       3580      3134      2247      2364      1591      1610      1611      1633      2259      1871      1752      1964      2078      1883      1507      1498
dram[7]:       3917      3180      2236      2439      1600      1633      1632      1670      2300      1850      1802      1927      2143      1807      1435      1493
dram[8]:       4077      3311      2269      2389      1651      1513      1641      1593      2342      1912      1832      2008      2148      1828      1452      1534
dram[9]:       3704      3139      2259      2422      1685      1504      1695      1595      2383      1873      1943      2030      2117      1920      1490      1534
dram[10]:       3986      3090      2260      2422      1716      1538      1586      1673      2283      1895      1954      1931      2110      1830      1500      1579
dram[11]:       3585      3114      2220      2470      1780      1614      1763      1750      2393      2132      1950      1975      2134      1968      1475      1560
dram[12]:       3741      3099      2269      2459      1752      1610      1765      1776      2390      2219      1925      2066      2107      2010      1481      1578
dram[13]:       3734      3097      2344      2496      1602      1677      1675      1811      2343      2157      1888      2060      2116      1922      1439      1570
dram[14]:       3842      3033      2278      2447      1686      1577      1611      1801      2375      2080      1866      2012      2193      1953      1545      1571
dram[15]:       4061      3085      2255      2472      1715      1599      1604      1857      2383      2048      1851      1966      2188      1958      1583      1537
dram[16]:       4029      3119      2206      2586      1755      1526      1576      1877      2359      2114      1856      2013      2250      1905      1581      1574
dram[17]:       3709      3134      2397      2524      1840      1554      1608      1853      2349      2067      1927      1992      2318      1911      1562      1583
dram[18]:       2948      3216      2208      2410      1523      1569      1597      1865      1758      2117      1888      1989      1797      1929      1678      1570
dram[19]:       3025      3239      2371      2365      1513      1524      1713      1790      1752      2031      1946      1949      1843      1925      1578      1485
dram[20]:       3189      3162      2360      2466      1536      1613      1741      1857      1793      2082      1971      2061      1796      1979      1651      1553
dram[21]:       3141      3202      2394      2348      1456      1558      1782      1775      1781      2085      1987      2060      1813      1979      1648      1505
dram[22]:       3168      3049      2391      2545      1479      1638      1677      1711      1809      2063      1994      2048      1828      2011      1641      1546
dram[23]:       3218      3109      2513      2433      1512      1573      1708      1682      1840      2272      2051      2037      1859      1979      1594      1616
maximum mf latency per bank:
dram[0]:        701       795       693       810       588       628       519       589       603       664       660       725       621      1113       603       749
dram[1]:        951       718      1036       811       774       635       826       629       987       605       913       730      1023      1081      1002       716
dram[2]:       1036       718       903       810       597       637       570       622       831       620       921       622       878       738       971       673
dram[3]:        713       742       691       734       544       618       607       643       534       588       655       596       806       745       717       680
dram[4]:        715       755       641       742       573       668       574       543       604       582       654       564       735      1008       632       684
dram[5]:        685       760       661       749       557       641       535       526       634       563       581       569       823       770       673       698
dram[6]:        656       681       683       750       566       664       521       590       582       606       575       525       672       766       758       681
dram[7]:        694       677       671       749       591       662       533       593       559       537       580       548       818       711       620       687
dram[8]:        693       668       675       700       652       548       571       533       530       559       688       565       851       627       613       695
dram[9]:        664       673       681       711       685       559       532       558       526       575       685       564       682       709       820       702
dram[10]:        673       688       680       724       573       576       584       555       527       588       671       555       854       772       699       698
dram[11]:        654       697       663       731       622       576       568       554       529       581       680       555       707       702       665       616
dram[12]:        645       693       667       672       577       668       585       623       534       616       685       574       615       653       676       627
dram[13]:        646       650       672       667       576       669       562       597       559       575       613       565       654       664       705       631
dram[14]:        698       642       721       664      1109       572       555       578       544       614       615       561      1027       710       862       627
dram[15]:        648       688       657       666       606       559       572       566       562       644       609       545       986      1075       788       585
dram[16]:        644       695       667       662       579       616       607       614       531       650       590       571       633      1064       770       599
dram[17]:        680       723       698       653       656       609       517       612       540       601       585       589       642       702       732       649
dram[18]:        655       723       674       629       690       610       581       621       518       604       633       590       653       660       799       731
[...]
Bank_Level_Parallism_Ready = 2.475800
write_to_read_ratio_blp_rw_average = 0.397149
GrpLevelPara = 2.968986 

BW Util details:
bwutil = 0.392050 
total_CMD = 50644 
util_bw = 19855 
Wasted_Col = 4686 
Wasted_Row = 709 
Idle = 25394 

BW Util Bottlenecks: 
RCDc_limit = 1971 
RCDWRc_limit = 783 
WTRc_limit = 2370 
RTWc_limit = 11394 
CCDLc_limit = 4609 
rwq = 0 
CCDLc_limit_alone = 3094 
WTRc_limit_alone = 2077 
RTWc_limit_alone = 10172 

Commands details: 
total_CMD = 50644 
n_nop = 30293 
Read = 13983 
Write = 0 
L2_Alloc = 0 
L2_WB = 5872 
n_act = 1063 
n_pre = 1047 
n_ref = 0 
n_req = 15451 
total_req = 19855 

Dual Bus Interface Util: 
issued_total_row = 2110 
issued_total_col = 19855 
Row_Bus_Util =  0.041663 
CoL_Bus_Util = 0.392050 
Either_Row_CoL_Bus_Util = 0.401844 
Issued_on_Two_Bus_Simul_Util = 0.031870 
issued_two_Eff = 0.079308 
queue_avg = 20.156662 


dram_util_bins: 0 0 0 0 0 0 0 0 0 0
dram_eff_bins: 0 0 0 0 0 0 0 0 0 0
mrqq: max=64 avg=20.1567
Memory Partition 20: 
Cache L2_bank_040:
MSHR contents

Cache L2_bank_041:
MSHR contents

In Dram Latency Queue (total = 0): 
DRAM[20]: 16 bks, busW=16 BL=2 CL=12, tRRD=3 tCCD=1, tRCD=12 tRAS=28 tRP=12 tRC=40
n_cmd=50644 n_nop=30316 n_act=1014 n_pre=998 n_ref_event=0 n_req=15447 n_rd=13976 n_rd_L2_A=0 n_write=0 n_wr_bk=5884 bw_util=0.3921
n_activity=27083 dram_eff=0.7333
bk0: 792a 43292i bk1: 800a 43170i bk2: 824a 43411i bk3: 824a 43926i bk4: 888a 43730i bk5: 876a 42521i bk6: 880a 41569i bk7: 888a 42381i bk8: 896a 41107i bk9: 880a 41887i bk10: 892a 41065i bk11: 888a 41336i bk12: 904a 41876i bk13: 888a 41671i bk14: 932a 42666i bk15: 924a 42324i 

------------------------------------------------------------------------

Row_Buffer_Locality = 0.934356
Row_Buffer_Locality_read = 0.958786
Row_Buffer_Locality_write = 0.702243
Bank_Level_Parallism = 5.847270
Bank_Level_Parallism_Col = 5.176110
Bank_Level_Parallism_Ready = 2.501913
write_to_read_ratio_blp_rw_average = 0.395172
GrpLevelPara = 2.941432 

BW Util details:
bwutil = 0.392149 
total_CMD = 50644 
util_bw = 19860 
Wasted_Col = 4843 
Wasted_Row = 577 
Idle = 25364 

BW Util Bottlenecks: 
RCDc_limit = 1895 
RCDWRc_limit = 790 
WTRc_limit = 2686 
RTWc_limit = 12478 
CCDLc_limit = 5225 
rwq = 0 
CCDLc_limit_alone = 3328 
WTRc_limit_alone = 2355 
RTWc_limit_alone = 10912 

Commands details: 
total_CMD = 50644 
n_nop = 30316 
Read = 13976 
Write = 0 
L2_Alloc = 0 
L2_WB = 5884 
n_act = 1014 
n_pre = 998 
n_ref = 0 
n_req = 15447 
total_req = 19860 

Dual Bus Interface Util: 
issued_total_row = 2012 
issued_total_col = 19860 
Row_Bus_Util =  0.039728 
CoL_Bus_Util = 0.392149 
Either_Row_CoL_Bus_Util = 0.401390 
Issued_on_Two_Bus_Simul_Util = 0.030487 
issued_two_Eff = 0.075954 
queue_avg = 20.726877 


dram_util_bins: 0 0 0 0 0 0 0 0 0 0
dram_eff_bins: 0 0 0 0 0 0 0 0 0 0
mrqq: max=64 avg=20.7269
Memory Partition 21: 
Cache L2_bank_042:
MSHR contents

Cache L2_bank_043:
MSHR contents

In Dram Latency Queue (total = 0): 
DRAM[21]: 16 bks, busW=16 BL=2 CL=12, tRRD=3 tCCD=1, tRCD=12 tRAS=28 tRP=12 tRC=40
n_cmd=50644 n_nop=30351 n_act=997 n_pre=981 n_ref_event=0 n_req=15443 n_rd=13972 n_rd_L2_A=0 n_write=0 n_wr_bk=5884 bw_util=0.3921
n_activity=26988 dram_eff=0.7357
bk0: 792a 43609i bk1: 788a 43336i bk2: 824a 44359i bk3: 824a 44114i bk4: 892a 42908i bk5: 876a 43108i bk6: 880a 41777i bk7: 888a 42592i bk8: 896a 42212i bk9: 880a 41110i bk10: 888a 42122i bk11: 888a 41367i bk12: 904a 42406i bk13: 888a 42786i bk14: 936a 42720i bk15: 928a 42499i 

------------------------------------------------------------------------

Row_Buffer_Locality = 0.935440
Row_Buffer_Locality_read = 0.959133
Row_Buffer_Locality_write = 0.710401
Bank_Level_Parallism = 5.664471
Bank_Level_Parallism_Col = 5.027711
Bank_Level_Parallism_Ready = 2.434579
write_to_read_ratio_blp_rw_average = 0.382522
GrpLevelPara = 2.923764 

BW Util details:
bwutil = 0.392070 
total_CMD = 50644 
util_bw = 19856 
Wasted_Col = 4709 
Wasted_Row = 631 
Idle = 25448 

BW Util Bottlenecks: 
RCDc_limit = 1843 
RCDWRc_limit = 795 
WTRc_limit = 2525 
RTWc_limit = 10562 
CCDLc_limit = 4726 
rwq = 0 
CCDLc_limit_alone = 3173 
WTRc_limit_alone = 2174 
RTWc_limit_alone = 9360 

Commands details: 
total_CMD = 50644 
n_nop = 30351 
Read = 13972 
Write = 0 
L2_Alloc = 0 
L2_WB = 5884 
n_act = 997 
n_pre = 981 
n_ref = 0 
n_req = 15443 
total_req = 19856 

Dual Bus Interface Util: 
issued_total_row = 1978 
issued_total_col = 19856 
Row_Bus_Util =  0.039057 
CoL_Bus_Util = 0.392070 
Either_Row_CoL_Bus_Util = 0.400699 
Issued_on_Two_Bus_Simul_Util = 0.030428 
issued_two_Eff = 0.075938 
queue_avg = 20.547527 


dram_util_bins: 0 0 0 0 0 0 0 0 0 0
dram_eff_bins: 0 0 0 0 0 0 0 0 0 0
mrqq: max=64 avg=20.5475
Memory Partition 22: 
Cache L2_bank_044:
MSHR contents

Cache L2_bank_045:
MSHR contents

In Dram Latency Queue (total = 0): 
DRAM[22]: 16 bks, busW=16 BL=2 CL=12, tRRD=3 tCCD=1, tRCD=12 tRAS=28 tRP=12 tRC=40
n_cmd=50644 n_nop=30336 n_act=981 n_pre=965 n_ref_event=0 n_req=15455 n_rd=13984 n_rd_L2_A=0 n_write=0 n_wr_bk=5884 bw_util=0.3923
n_activity=26881 dram_eff=0.7391
bk0: 800a 44205i bk1: 800a 43671i bk2: 824a 43672i bk3: 820a 43312i bk4: 892a 43684i bk5: 872a 43458i bk6: 884a 41722i bk7: 888a 41529i bk8: 896a 41908i bk9: 880a 41121i bk10: 888a 41590i bk11: 888a 41439i bk12: 904a 43183i bk13: 888a 42493i bk14: 932a 43550i bk15: 928a 42232i 

------------------------------------------------------------------------

Row_Buffer_Locality = 0.936525
Row_Buffer_Locality_read = 0.959668
Row_Buffer_Locality_write = 0.716519
Bank_Level_Parallism = 5.719600
Bank_Level_Parallism_Col = 5.110435
Bank_Level_Parallism_Ready = 2.394806
write_to_read_ratio_blp_rw_average = 0.373394
GrpLevelPara = 2.965476 

BW Util details:
bwutil = 0.392307 
total_CMD = 50644 
util_bw = 19868 
Wasted_Col = 4529 
Wasted_Row = 603 
Idle = 25644 

BW Util Bottlenecks: 
RCDc_limit = 1735 
RCDWRc_limit = 755 
WTRc_limit = 3072 
RTWc_limit = 10344 
CCDLc_limit = 4757 
rwq = 0 
CCDLc_limit_alone = 3028 
WTRc_limit_alone = 2644 
RTWc_limit_alone = 9043 

Commands details: 
total_CMD = 50644 
n_nop = 30336 
Read = 13984 
Write = 0 
L2_Alloc = 0 
L2_WB = 5884 
n_act = 981 
n_pre = 965 
n_ref = 0 
n_req = 15455 
total_req = 19868 

Dual Bus Interface Util: 
issued_total_row = 1946 
issued_total_col = 19868 
Row_Bus_Util =  0.038425 
CoL_Bus_Util = 0.392307 
Either_Row_CoL_Bus_Util = 0.400995 
Issued_on_Two_Bus_Simul_Util = 0.029737 
issued_two_Eff = 0.074158 
queue_avg = 19.819386 


dram_util_bins: 0 0 0 0 0 0 0 0 0 0
dram_eff_bins: 0 0 0 0 0 0 0 0 0 0
mrqq: max=64 avg=19.8194
Memory Partition 23: 
Cache L2_bank_046:
MSHR contents

Cache L2_bank_047:
MSHR contents

In Dram Latency Queue (total = 0): 
DRAM[23]: 16 bks, busW=16 BL=2 CL=12, tRRD=3 tCCD=1, tRCD=12 tRAS=28 tRP=12 tRC=40
n_cmd=50644 n_nop=30320 n_act=993 n_pre=977 n_ref_event=0 n_req=15431 n_rd=13960 n_rd_L2_A=0 n_write=0 n_wr_bk=5884 bw_util=0.3918
n_activity=26885 dram_eff=0.7381
bk0: 796a 43552i bk1: 800a 43659i bk2: 824a 43688i bk3: 824a 43936i bk4: 888a 43301i bk5: 872a 43347i bk6: 880a 41783i bk7: 888a 42104i bk8: 892a 42044i bk9: 868a 42164i bk10: 888a 41915i bk11: 888a 41175i bk12: 904a 41854i bk13: 888a 42336i bk14: 932a 43350i bk15: 928a 41691i 

------------------------------------------------------------------------

Row_Buffer_Locality = 0.935649
Row_Buffer_Locality_read = 0.959599
Row_Buffer_Locality_write = 0.708362
Bank_Level_Parallism = 5.738520
Bank_Level_Parallism_Col = 5.126288
Bank_Level_Parallism_Ready = 2.391252
write_to_read_ratio_blp_rw_average = 0.391313
GrpLevelPara = 2.953499 

BW Util details:
bwutil = 0.391833 
total_CMD = 50644 
util_bw = 19844 
Wasted_Col = 4593 
Wasted_Row = 628 
Idle = 25579 

BW Util Bottlenecks: 
RCDc_limit = 1896 
RCDWRc_limit = 727 
WTRc_limit = 1957 
RTWc_limit = 11744 
CCDLc_limit = 4752 
rwq = 0 
CCDLc_limit_alone = 3051 
WTRc_limit_alone = 1722 
RTWc_limit_alone = 10278 

Commands details: 
total_CMD = 50644 
n_nop = 30320 
Read = 13960 
Write = 0 
L2_Alloc = 0 
L2_WB = 5884 
n_act = 993 
n_pre = 977 
n_ref = 0 
n_req = 15431 
total_req = 19844 

Dual Bus Interface Util: 
issued_total_row = 1970 
issued_total_col = 19844 
Row_Bus_Util =  0.038899 
CoL_Bus_Util = 0.391833 
Either_Row_CoL_Bus_Util = 0.401311 
Issued_on_Two_Bus_Simul_Util = 0.029421 
issued_two_Eff = 0.073312 
queue_avg = 20.359055 


dram_util_bins: 0 0 0 0 0 0 0 0 0 0
dram_eff_bins: 0 0 0 0 0 0 0 0 0 0
mrqq: max=64 avg=20.3591

========= L2 cache stats =========
L2_cache_bank[0]: Access = 21427, Miss = 7790, Miss_rate = 0.364, Pending_hits = 263, Reservation_fails = 424
L2_cache_bank[1]: Access = 20555, Miss = 7680, Miss_rate = 0.374, Pending_hits = 217, Reservation_fails = 0
L2_cache_bank[2]: Access = 21221, Miss = 7776, Miss_rate = 0.366, Pending_hits = 248, Reservation_fails = 184
L2_cache_bank[3]: Access = 20569, Miss = 7676, Miss_rate = 0.373, Pending_hits = 226, Reservation_fails = 0
L2_cache_bank[4]: Access = 21279, Miss = 7710, Miss_rate = 0.362, Pending_hits = 245, Reservation_fails = 173
L2_cache_bank[5]: Access = 20620, Miss = 7676, Miss_rate = 0.372, Pending_hits = 219, Reservation_fails = 0
L2_cache_bank[6]: Access = 21164, Miss = 7664, Miss_rate = 0.362, Pending_hits = 244, Reservation_fails = 526
L2_cache_bank[7]: Access = 20537, Miss = 7680, Miss_rate = 0.374, Pending_hits = 217, Reservation_fails = 0
L2_cache_bank[8]: Access = 21320, Miss = 7663, Miss_rate = 0.359, Pending_hits = 243, Reservation_fails = 285
L2_cache_bank[9]: Access = 20608, Miss = 7676, Miss_rate = 0.372, Pending_hits = 213, Reservation_fails = 0
L2_cache_bank[10]: Access = 20520, Miss = 7656, Miss_rate = 0.373, Pending_hits = 223, Reservation_fails = 0
L2_cache_bank[11]: Access = 20577, Miss = 7668, Miss_rate = 0.373, Pending_hits = 227, Reservation_fails = 0
L2_cache_bank[12]: Access = 20621, Miss = 7656, Miss_rate = 0.371, Pending_hits = 229, Reservation_fails = 0
L2_cache_bank[13]: Access = 20548, Miss = 7664, Miss_rate = 0.373, Pending_hits = 229, Reservation_fails = 0
L2_cache_bank[14]: Access = 20549, Miss = 7648, Miss_rate = 0.372, Pending_hits = 231, Reservation_fails = 0
L2_cache_bank[15]: Access = 20620, Miss = 7660, Miss_rate = 0.371, Pending_hits = 212, Reservation_fails = 0
L2_cache_bank[16]: Access = 20665, Miss = 7636, Miss_rate = 0.370, Pending_hits = 209, Reservation_fails = 0
L2_cache_bank[17]: Access = 20543, Miss = 7668, Miss_rate = 0.373, Pending_hits = 211, Reservation_fails = 0
L2_cache_bank[18]: Access = 20587, Miss = 7644, Miss_rate = 0.371, Pending_hits = 223, Reservation_fails = 0
L2_cache_bank[19]: Access = 20598, Miss = 7664, Miss_rate = 0.372, Pending_hits = 224, Reservation_fails = 0
L2_cache_bank[20]: Access = 20637, Miss = 7628, Miss_rate = 0.370, Pending_hits = 214, Reservation_fails = 0
L2_cache_bank[21]: Access = 20639, Miss = 7664, Miss_rate = 0.371, Pending_hits = 231, Reservation_fails = 0
L2_cache_bank[22]: Access = 20536, Miss = 7620, Miss_rate = 0.371, Pending_hits = 220, Reservation_fails = 0
L2_cache_bank[23]: Access = 20550, Miss = 7652, Miss_rate = 0.372, Pending_hits = 218, Reservation_fails = 0
L2_cache_bank[24]: Access = 20656, Miss = 7620, Miss_rate = 0.369, Pending_hits = 225, Reservation_fails = 0
L2_cache_bank[25]: Access = 20625, Miss = 7636, Miss_rate = 0.370, Pending_hits = 206, Reservation_fails = 0
L2_cache_bank[26]: Access = 20577, Miss = 7632, Miss_rate = 0.371, Pending_hits = 239, Reservation_fails = 0
L2_cache_bank[27]: Access = 20611, Miss = 7624, Miss_rate = 0.370, Pending_hits = 212, Reservation_fails = 0
L2_cache_bank[28]: Access = 20575, Miss = 7620, Miss_rate = 0.370, Pending_hits = 214, Reservation_fails = 0
L2_cache_bank[29]: Access = 20557, Miss = 7624, Miss_rate = 0.371, Pending_hits = 216, Reservation_fails = 0
L2_cache_bank[30]: Access = 20595, Miss = 7612, Miss_rate = 0.370, Pending_hits = 216, Reservation_fails = 0
L2_cache_bank[31]: Access = 20607, Miss = 7636, Miss_rate = 0.371, Pending_hits = 210, Reservation_fails = 0
L2_cache_bank[32]: Access = 20573, Miss = 7590, Miss_rate = 0.369, Pending_hits = 211, Reservation_fails = 0
L2_cache_bank[33]: Access = 20595, Miss = 7616, Miss_rate = 0.370, Pending_hits = 219, Reservation_fails = 0
L2_cache_bank[34]: Access = 20576, Miss = 7588, Miss_rate = 0.369, Pending_hits = 211, Reservation_fails = 0
L2_cache_bank[35]: Access = 20609, Miss = 7620, Miss_rate = 0.370, Pending_hits = 216, Reservation_fails = 0
L2_cache_bank[36]: Access = 20569, Miss = 7728, Miss_rate = 0.376, Pending_hits = 219, Reservation_fails = 0
L2_cache_bank[37]: Access = 20564, Miss = 7640, Miss_rate = 0.372, Pending_hits = 217, Reservation_fails = 0
L2_cache_bank[38]: Access = 20828, Miss = 7679, Miss_rate = 0.369, Pending_hits = 218, Reservation_fails = 139
L2_cache_bank[39]: Access = 20619, Miss = 7648, Miss_rate = 0.371, Pending_hits = 211, Reservation_fails = 0
L2_cache_bank[40]: Access = 20612, Miss = 7680, Miss_rate = 0.373, Pending_hits = 227, Reservation_fails = 0
L2_cache_bank[41]: Access = 20628, Miss = 7640, Miss_rate = 0.370, Pending_hits = 217, Reservation_fails = 0
L2_cache_bank[42]: Access = 20640, Miss = 7684, Miss_rate = 0.372, Pending_hits = 231, Reservation_fails = 0
L2_cache_bank[43]: Access = 20606, Miss = 7632, Miss_rate = 0.370, Pending_hits = 229, Reservation_fails = 0
L2_cache_bank[44]: Access = 20517, Miss = 7692, Miss_rate = 0.375, Pending_hits = 218, Reservation_fails = 0
L2_cache_bank[45]: Access = 20554, Miss = 7636, Miss_rate = 0.372, Pending_hits = 223, Reservation_fails = 0
L2_cache_bank[46]: Access = 20631, Miss = 7676, Miss_rate = 0.372, Pending_hits = 222, Reservation_fails = 0
L2_cache_bank[47]: Access = 20625, Miss = 7628, Miss_rate = 0.370, Pending_hits = 215, Reservation_fails = 0
L2_total_cache_accesses = 992039
L2_total_cache_misses = 367500
L2_total_cache_miss_rate = 0.3704
L2_total_cache_pending_hits = 10678
L2_total_cache_reservation_fails = 1731
L2_total_cache_breakdown:
	L2_cache_stats_breakdown[GLOBAL_ACC_R][HIT] = 119139
	L2_cache_stats_breakdown[GLOBAL_ACC_R][HIT_RESERVED] = 10556
	L2_cache_stats_breakdown[GLOBAL_ACC_R][MISS] = 83675
	L2_cache_stats_breakdown[GLOBAL_ACC_R][RESERVATION_FAIL] = 139
	L2_cache_stats_breakdown[GLOBAL_ACC_R][SECTOR_MISS] = 251015
	L2_cache_stats_breakdown[LOCAL_ACC_R][HIT] = 0
	L2_cache_stats_breakdown[LOCAL_ACC_R][HIT_RESERVED] = 0
	L2_cache_stats_breakdown[LOCAL_ACC_R][MISS] = 0
	L2_cache_stats_breakdown[LOCAL_ACC_R][RESERVATION_FAIL] = 0
	L2_cache_stats_breakdown[LOCAL_ACC_R][SECTOR_MISS] = 0
	L2_cache_stats_breakdown[CONST_ACC_R][HIT] = 152
	L2_cache_stats_breakdown[CONST_ACC_R][HIT_RESERVED] = 6
	L2_cache_stats_breakdown[CONST_ACC_R][MISS] = 1
	L2_cache_stats_breakdown[CONST_ACC_R][RESERVATION_FAIL] = 150
	L2_cache_stats_breakdown[CONST_ACC_R][SECTOR_MISS] = 1
	L2_cache_stats_breakdown[TEXTURE_ACC_R][HIT] = 0
	L2_cache_stats_breakdown[TEXTURE_ACC_R][HIT_RESERVED] = 0
	L2_cache_stats_breakdown[TEXTURE_ACC_R][MISS] = 0
	L2_cache_stats_breakdown[TEXTURE_ACC_R][RESERVATION_FAIL] = 0
	L2_cache_stats_breakdown[TEXTURE_ACC_R][SECTOR_MISS] = 0
	L2_cache_stats_breakdown[GLOBAL_ACC_W][HIT] = 491526
	L2_cache_stats_breakdown[GLOBAL_ACC_W][HIT_RESERVED] = 0
	L2_cache_stats_breakdown[GLOBAL_ACC_W][MISS] = 2048
	L2_cache_stats_breakdown[GLOBAL_ACC_W][RESERVATION_FAIL] = 0
	L2_cache_stats_breakdown[GLOBAL_ACC_W][SECTOR_MISS] = 30720
	L2_cache_stats_breakdown[LOCAL_ACC_W][HIT] = 0
	L2_cache_stats_breakdown[LOCAL_ACC_W][HIT_RESERVED] = 0
	L2_cache_stats_breakdown[LOCAL_ACC_W][MISS] = 0
	L2_cache_stats_breakdown[LOCAL_ACC_W][RESERVATION_FAIL] = 0
	L2_cache_stats_breakdown[LOCAL_ACC_W][SECTOR_MISS] = 0
	L2_cache_stats_breakdown[L1_WRBK_ACC][HIT] = 0
	L2_cache_stats_breakdown[L1_WRBK_ACC][HIT_RESERVED] = 0
	L2_cache_stats_breakdown[L1_WRBK_ACC][MISS] = 0
	L2_cache_stats_breakdown[L1_WRBK_ACC][RESERVATION_FAIL] = 0
	L2_cache_stats_breakdown[L1_WRBK_ACC][SECTOR_MISS] = 0
	L2_cache_stats_breakdown[L2_WRBK_ACC][HIT] = 0
	L2_cache_stats_breakdown[L2_WRBK_ACC][HIT_RESERVED] = 0
	L2_cache_stats_breakdown[L2_WRBK_ACC][MISS] = 0
	L2_cache_stats_breakdown[L2_WRBK_ACC][RESERVATION_FAIL] = 0
	L2_cache_stats_breakdown[L2_WRBK_ACC][SECTOR_MISS] = 0
	L2_cache_stats_breakdown[INST_ACC_R][HIT] = 3044
	L2_cache_stats_breakdown[INST_ACC_R][HIT_RESERVED] = 116
	L2_cache_stats_breakdown[INST_ACC_R][MISS] = 10
	L2_cache_stats_breakdown[INST_ACC_R][RESERVATION_FAIL] = 1442
	L2_cache_stats_breakdown[INST_ACC_R][SECTOR_MISS] = 30
	L2_cache_stats_breakdown[L1_WR_ALLOC_R][HIT] = 0
	L2_cache_stats_breakdown[L1_WR_ALLOC_R][HIT_RESERVED] = 0
	L2_cache_stats_breakdown[L1_WR_ALLOC_R][MISS] = 0
	L2_cache_stats_breakdown[L1_WR_ALLOC_R][RESERVATION_FAIL] = 0
	L2_cache_stats_breakdown[L1_WR_ALLOC_R][SECTOR_MISS] = 0
	L2_cache_stats_breakdown[L2_WR_ALLOC_R][HIT] = 0
	L2_cache_stats_breakdown[L2_WR_ALLOC_R][HIT_RESERVED] = 0
	L2_cache_stats_breakdown[L2_WR_ALLOC_R][MISS] = 0
	L2_cache_stats_breakdown[L2_WR_ALLOC_R][RESERVATION_FAIL] = 0
	L2_cache_stats_breakdown[L2_WR_ALLOC_R][SECTOR_MISS] = 0
	L2_cache_stats_breakdown[GLOBAL_ACC_R][TOTAL_ACCESS] = 464385
	L2_cache_stats_breakdown[CONST_ACC_R][TOTAL_ACCESS] = 160
	L2_cache_stats_breakdown[GLOBAL_ACC_W][TOTAL_ACCESS] = 524294
	L2_cache_stats_breakdown[INST_ACC_R][TOTAL_ACCESS] = 3200
L2_total_cache_reservation_fail_breakdown:
	L2_cache_stats_fail_breakdown[GLOBAL_ACC_R][MSHR_MERGE_ENRTY_FAIL] = 139
	L2_cache_stats_fail_breakdown[CONST_ACC_R][MSHR_MERGE_ENRTY_FAIL] = 150
	L2_cache_stats_fail_breakdown[INST_ACC_R][MSHR_MERGE_ENRTY_FAIL] = 1442
L2_cache_data_port_util = 0.179
L2_cache_fill_port_util = 0.098

icnt_total_pkts_mem_to_simt=992039
icnt_total_pkts_simt_to_mem=989559
LD_mem_lat_dist  0 0 0 0 0 0 0 0 0 0 0 0 0 0 0 0 0 0 0 0 0 0 0 0 0 0 0
ST_mem_lat_dist  0 0 0 0 0 0 0 0 0 0 0 0 0 0 0 0 0 0 0 0 0 0 0 0 0 0 0
----------------------------Interconnect-DETAILS--------------------------------
Class 0:
Packet latency average = 179.544
	minimum = 5
	maximum = 1166
Network latency average = 143.746
	minimum = 5
	maximum = 769
Slowest packet = 706447
Flit latency average = 143.746
	minimum = 5
	maximum = 769
Slowest flit = 1035077
Fragmentation average = 0
	minimum = 0
	maximum = 0
Injected packet rate average = 0.376502
	minimum = 0.342254 (at node 50)
	maximum = 0.432227 (at node 13)
Accepted packet rate average = 0.376502
	minimum = 0.342254 (at node 50)
	maximum = 0.432851 (at node 13)
Injected flit rate average = 0.376502
	minimum = 0.342254 (at node 50)
	maximum = 0.432227 (at node 13)
Accepted flit rate average= 0.376502
	minimum = 0.342254 (at node 50)
	maximum = 0.432851 (at node 13)
Injected packet length average = 1
Accepted packet length average = 1
Total in-flight flits = 0 (0 measured)
====== Overall Traffic Statistics ======
====== Traffic class 0 ======
Packet latency average = 121.241 (2 samples)
	minimum = 5 (2 samples)
	maximum = 916.5 (2 samples)
Network latency average = 96.9571 (2 samples)
	minimum = 5 (2 samples)
	maximum = 649 (2 samples)
Flit latency average = 96.9571 (2 samples)
	minimum = 5 (2 samples)
	maximum = 649 (2 samples)
Fragmentation average = 0 (2 samples)
	minimum = 0 (2 samples)
	maximum = 0 (2 samples)
Injected packet rate average = 0.309839 (2 samples)
	minimum = 0.281915 (2 samples)
	maximum = 0.35553 (2 samples)
Accepted packet rate average = 0.309839 (2 samples)
	minimum = 0.281915 (2 samples)
	maximum = 0.356418 (2 samples)
Injected flit rate average = 0.309839 (2 samples)
	minimum = 0.281915 (2 samples)
	maximum = 0.35553 (2 samples)
Accepted flit rate average = 0.309839 (2 samples)
	minimum = 0.281915 (2 samples)
	maximum = 0.356418 (2 samples)
Injected packet size average = 1 (2 samples)
Accepted packet size average = 1 (2 samples)
Hops average = 1 (2 samples)
----------------------------END-of-Interconnect-DETAILS-------------------------


gpgpu_simulation_time = 0 days, 0 hrs, 19 min, 13 sec (1153 sec)
gpgpu_simulation_rate = 140109 (inst/sec)
gpgpu_simulation_rate = 62 (cycle/sec)
Training done
GPGPU-Sim: *** exit detected ***
