

        *** GPGPU-Sim Simulator Version 4.0.0  [build gpgpu-sim_git-commit-_modified_] ***


GPGPU-Sim PTX: simulation mode 0 (can change with PTX_SIM_MODE_FUNC environment variable:
               1=functional simulation only, 0=detailed performance simulator)
GPGPU-Sim PTX: overriding embedded ptx with ptx file (PTX_SIM_USE_PTX_FILE is set)
GPGPU-Sim: Configuration options:

-save_embedded_ptx                      0 # saves ptx files embedded in binary as <n>.ptx
-keep                                   0 # keep intermediate files created by GPGPU-Sim when interfacing with external programs
-gpgpu_ptx_save_converted_ptxplus                    0 # Saved converted ptxplus to a file
-gpgpu_occupancy_sm_number                   70 # The SM number to pass to ptxas when getting register usage for computing GPU occupancy. This parameter is required in the config.
-ptx_opcode_latency_int         4,13,4,5,145 # Opcode latencies for integers <ADD,MAX,MUL,MAD,DIV>Default 1,1,19,25,145
-ptx_opcode_latency_fp          4,13,4,5,39 # Opcode latencies for single precision floating points <ADD,MAX,MUL,MAD,DIV>Default 1,1,1,1,30
-ptx_opcode_latency_dp         8,19,8,8,330 # Opcode latencies for double precision floating points <ADD,MAX,MUL,MAD,DIV>Default 8,8,8,8,335
-ptx_opcode_latency_sfu                  100 # Opcode latencies for SFU instructionsDefault 8
-ptx_opcode_latency_tesnor                   64 # Opcode latencies for Tensor instructionsDefault 64
-ptx_opcode_initiation_int            2,2,2,2,8 # Opcode initiation intervals for integers <ADD,MAX,MUL,MAD,DIV>Default 1,1,4,4,32
-ptx_opcode_initiation_fp            2,2,2,2,4 # Opcode initiation intervals for single precision floating points <ADD,MAX,MUL,MAD,DIV>Default 1,1,1,1,5
-ptx_opcode_initiation_dp          4,4,4,4,130 # Opcode initiation intervals for double precision floating points <ADD,MAX,MUL,MAD,DIV>Default 8,8,8,8,130
-ptx_opcode_initiation_sfu                    8 # Opcode initiation intervals for sfu instructionsDefault 8
-ptx_opcode_initiation_tensor                   64 # Opcode initiation intervals for tensor instructionsDefault 64
-cdp_latency         7200,8000,100,12000,1600 # CDP API latency <cudaStreamCreateWithFlags, cudaGetParameterBufferV2_init_perWarp, cudaGetParameterBufferV2_perKernel, cudaLaunchDeviceV2_init_perWarp, cudaLaunchDevicV2_perKernel>Default 7200,8000,100,12000,1600
-network_mode                           1 # Interconnection network mode
-inter_config_file   config_volta_islip.icnt # Interconnection network config file
-inct_in_buffer_limit                   64 # in_buffer_limit
-inct_out_buffer_limit                   64 # out_buffer_limit
-inct_subnets                           2 # subnets
-gpgpu_ptx_use_cuobjdump                    1 # Use cuobjdump to extract ptx and sass from binaries
-gpgpu_experimental_lib_support                    0 # Try to extract code from cuda libraries [Broken because of unknown cudaGetExportTable]
-checkpoint_option                      0 #  checkpointing flag (0 = no checkpoint)
-checkpoint_kernel                      1 #  checkpointing during execution of which kernel (1- 1st kernel)
-checkpoint_CTA                         0 #  checkpointing after # of CTA (< less than total CTA)
-resume_option                          0 #  resume flag (0 = no resume)
-resume_kernel                          0 #  Resume from which kernel (1= 1st kernel)
-resume_CTA                             0 #  resume from which CTA 
-checkpoint_CTA_t                       0 #  resume from which CTA 
-checkpoint_insn_Y                      0 #  resume from which CTA 
-gpgpu_ptx_convert_to_ptxplus                    0 # Convert SASS (native ISA) to ptxplus and run ptxplus
-gpgpu_ptx_force_max_capability                   70 # Force maximum compute capability
-gpgpu_ptx_inst_debug_to_file                    0 # Dump executed instructions' debug information to file
-gpgpu_ptx_inst_debug_file       inst_debug.txt # Executed instructions' debug output file
-gpgpu_ptx_inst_debug_thread_uid                    1 # Thread UID for executed instructions' debug output
-gpgpu_simd_model                       1 # 1 = post-dominator
-gpgpu_shader_core_pipeline              2048:32 # shader core pipeline config, i.e., {<nthread>:<warpsize>}
-gpgpu_tex_cache:l1  N:16:128:24,L:R:m:N:L,T:128:4,128:2 # per-shader L1 texture cache  (READ-ONLY) config  {<nsets>:<bsize>:<assoc>,<rep>:<wr>:<alloc>:<wr_alloc>,<mshr>:<N>:<merge>,<mq>:<rf>}
-gpgpu_const_cache:l1 N:128:64:8,L:R:f:N:L,S:2:64,4 # per-shader L1 constant memory cache  (READ-ONLY) config  {<nsets>:<bsize>:<assoc>,<rep>:<wr>:<alloc>:<wr_alloc>,<mshr>:<N>:<merge>,<mq>} 
-gpgpu_cache:il1     N:64:128:16,L:R:f:N:L,S:2:48,4 # shader L1 instruction cache config  {<nsets>:<bsize>:<assoc>,<rep>:<wr>:<alloc>:<wr_alloc>,<mshr>:<N>:<merge>,<mq>} 
-gpgpu_cache:dl1     S:4:128:64,L:L:s:N:L,A:256:8,16:0,32 # per-shader L1 data cache config  {<nsets>:<bsize>:<assoc>,<rep>:<wr>:<alloc>:<wr_alloc>,<mshr>:<N>:<merge>,<mq> | none}
-l1_latency                            28 # L1 Hit Latency
-smem_latency                          19 # smem Latency
-gpgpu_cache:dl1PrefL1                 none # per-shader L1 data cache config  {<nsets>:<bsize>:<assoc>,<rep>:<wr>:<alloc>:<wr_alloc>,<mshr>:<N>:<merge>,<mq> | none}
-gpgpu_cache:dl1PrefShared                 none # per-shader L1 data cache config  {<nsets>:<bsize>:<assoc>,<rep>:<wr>:<alloc>:<wr_alloc>,<mshr>:<N>:<merge>,<mq> | none}
-gmem_skip_L1D                          0 # global memory access skip L1D cache (implements -Xptxas -dlcm=cg, default=no skip)
-gpgpu_perfect_mem                      0 # enable perfect memory mode (no cache miss)
-n_regfile_gating_group                    4 # group of lanes that should be read/written together)
-gpgpu_clock_gated_reg_file                    0 # enable clock gated reg file for power calculations
-gpgpu_clock_gated_lanes                    0 # enable clock gated lanes for power calculations
-gpgpu_shader_registers                65536 # Number of registers per shader core. Limits number of concurrent CTAs. (default 8192)
-gpgpu_registers_per_block                 8192 # Maximum number of registers per CTA. (default 8192)
-gpgpu_ignore_resources_limitation                    0 # gpgpu_ignore_resources_limitation (default 0)
-gpgpu_shader_cta                      32 # Maximum number of concurrent CTAs in shader (default 8)
-gpgpu_num_cta_barriers                   16 # Maximum number of named barriers per CTA (default 16)
-gpgpu_n_clusters                      40 # number of processing clusters
-gpgpu_n_cores_per_cluster                    2 # number of simd cores per cluster
-gpgpu_n_cluster_ejection_buffer_size                   32 # number of packets in ejection buffer
-gpgpu_n_ldst_response_buffer_size                    2 # number of response packets in ld/st unit ejection buffer
-gpgpu_shmem_per_block                49152 # Size of shared memory per thread block or CTA (default 48kB)
-gpgpu_shmem_size                   16384 # Size of shared memory per shader core (default 16kB)
-adaptive_volta_cache_config                    1 # adaptive_volta_cache_config
-gpgpu_shmem_size                   98304 # Size of shared memory per shader core (default 16kB)
-gpgpu_shmem_size_PrefL1                16384 # Size of shared memory per shader core (default 16kB)
-gpgpu_shmem_size_PrefShared                16384 # Size of shared memory per shader core (default 16kB)
-gpgpu_shmem_num_banks                   32 # Number of banks in the shared memory in each shader core (default 16)
-gpgpu_shmem_limited_broadcast                    0 # Limit shared memory to do one broadcast per cycle (default on)
-gpgpu_shmem_warp_parts                    1 # Number of portions a warp is divided into for shared memory bank conflict check 
-mem_unit_ports                         4 # The number of memory transactions allowed per core cycle
-gpgpu_shmem_warp_parts                    1 # Number of portions a warp is divided into for shared memory bank conflict check 
-gpgpu_warpdistro_shader                   -1 # Specify which shader core to collect the warp size distribution from
-gpgpu_warp_issue_shader                    0 # Specify which shader core to collect the warp issue distribution from
-gpgpu_local_mem_map                    1 # Mapping from local memory space address to simulated GPU physical address space (default = enabled)
-gpgpu_num_reg_banks                    8 # Number of register banks (default = 8)
-gpgpu_reg_bank_use_warp_id                    0 # Use warp ID in mapping registers to banks (default = off)
-sub_core_model                         1 # Sub Core Volta/Pascal model (default = off)
-enable_specialized_operand_collector                    0 # enable_specialized_operand_collector
-gpgpu_operand_collector_num_units_sp                    4 # number of collector units (default = 4)
-gpgpu_operand_collector_num_units_dp                    0 # number of collector units (default = 0)
-gpgpu_operand_collector_num_units_sfu                    4 # number of collector units (default = 4)
-gpgpu_operand_collector_num_units_int                    0 # number of collector units (default = 0)
-gpgpu_operand_collector_num_units_tensor_core                    4 # number of collector units (default = 4)
-gpgpu_operand_collector_num_units_mem                    2 # number of collector units (default = 2)
-gpgpu_operand_collector_num_units_gen                    8 # number of collector units (default = 0)
-gpgpu_operand_collector_num_in_ports_sp                    1 # number of collector unit in ports (default = 1)
-gpgpu_operand_collector_num_in_ports_dp                    0 # number of collector unit in ports (default = 0)
-gpgpu_operand_collector_num_in_ports_sfu                    1 # number of collector unit in ports (default = 1)
-gpgpu_operand_collector_num_in_ports_int                    0 # number of collector unit in ports (default = 0)
-gpgpu_operand_collector_num_in_ports_tensor_core                    1 # number of collector unit in ports (default = 1)
-gpgpu_operand_collector_num_in_ports_mem                    1 # number of collector unit in ports (default = 1)
-gpgpu_operand_collector_num_in_ports_gen                    8 # number of collector unit in ports (default = 0)
-gpgpu_operand_collector_num_out_ports_sp                    1 # number of collector unit in ports (default = 1)
-gpgpu_operand_collector_num_out_ports_dp                    0 # number of collector unit in ports (default = 0)
-gpgpu_operand_collector_num_out_ports_sfu                    1 # number of collector unit in ports (default = 1)
-gpgpu_operand_collector_num_out_ports_int                    0 # number of collector unit in ports (default = 0)
-gpgpu_operand_collector_num_out_ports_tensor_core                    1 # number of collector unit in ports (default = 1)
-gpgpu_operand_collector_num_out_ports_mem                    1 # number of collector unit in ports (default = 1)
-gpgpu_operand_collector_num_out_ports_gen                    8 # number of collector unit in ports (default = 0)
-gpgpu_coalesce_arch                   60 # Coalescing arch (GT200 = 13, Fermi = 20)
-gpgpu_num_sched_per_core                    4 # Number of warp schedulers per core
-gpgpu_max_insn_issue_per_warp                    1 # Max number of instructions that can be issued per warp in one cycle by scheduler (either 1 or 2)
-gpgpu_dual_issue_diff_exec_units                    1 # should dual issue use two different execution unit resources (Default = 1)
-gpgpu_simt_core_sim_order                    1 # Select the simulation order of cores in a cluster (0=Fix, 1=Round-Robin)
-gpgpu_pipeline_widths 4,4,4,4,4,4,4,4,4,4,8,4,4 # Pipeline widths ID_OC_SP,ID_OC_DP,ID_OC_INT,ID_OC_SFU,ID_OC_MEM,OC_EX_SP,OC_EX_DP,OC_EX_INT,OC_EX_SFU,OC_EX_MEM,EX_WB,ID_OC_TENSOR_CORE,OC_EX_TENSOR_CORE
-gpgpu_tensor_core_avail                    1 # Tensor Core Available (default=0)
-gpgpu_num_sp_units                     4 # Number of SP units (default=1)
-gpgpu_num_dp_units                     4 # Number of DP units (default=0)
-gpgpu_num_int_units                    4 # Number of INT units (default=0)
-gpgpu_num_sfu_units                    4 # Number of SF units (default=1)
-gpgpu_num_tensor_core_units                    4 # Number of tensor_core units (default=1)
-gpgpu_num_mem_units                    1 # Number if ldst units (default=1) WARNING: not hooked up to anything
-gpgpu_scheduler                      gto # Scheduler configuration: < lrr | gto | two_level_active > If two_level_active:<num_active_warps>:<inner_prioritization>:<outer_prioritization>For complete list of prioritization values see shader.h enum scheduler_prioritization_typeDefault: gto
-gpgpu_concurrent_kernel_sm                    0 # Support concurrent kernels on a SM (default = disabled)
-perf_sim_memcpy                        1 # Fill the L2 cache on memcpy
-gpgpu_dram_scheduler                    1 # 0 = fifo, 1 = FR-FCFS (defaul)
-gpgpu_dram_partition_queues          64:64:64:64 # i2$:$2d:d2$:$2i
-l2_ideal                               0 # Use a ideal L2 cache that always hit
-gpgpu_cache:dl2     S:32:128:24,L:B:m:L:L,A:192:4,32:0,32 # unified banked L2 data cache config  {<nsets>:<bsize>:<assoc>,<rep>:<wr>:<alloc>:<wr_alloc>,<mshr>:<N>:<merge>,<mq>}
-gpgpu_cache:dl2_texture_only                    0 # L2 cache used for texture only
-gpgpu_n_mem                           32 # number of memory modules (e.g. memory controllers) in gpu
-gpgpu_n_sub_partition_per_mchannel                    2 # number of memory subpartition in each memory module
-gpgpu_n_mem_per_ctrlr                    1 # number of memory chips per memory controller
-gpgpu_memlatency_stat                   14 # track and display latency statistics 0x2 enables MC, 0x4 enables queue logs
-gpgpu_frfcfs_dram_sched_queue_size                   64 # 0 = unlimited (default); # entries per chip
-gpgpu_dram_return_queue_size                  192 # 0 = unlimited (default); # entries per chip
-gpgpu_dram_buswidth                   16 # default = 4 bytes (8 bytes per cycle at DDR)
-gpgpu_dram_burst_length                    2 # Burst length of each DRAM request (default = 4 data bus cycle)
-dram_data_command_freq_ratio                    2 # Frequency ratio between DRAM data bus and command bus (default = 2 times, i.e. DDR)
-gpgpu_dram_timing_opt nbk=16:CCD=1:RRD=3:RCD=12:RAS=28:RP=12:RC=40: CL=12:WL=2:CDLR=3:WR=10:nbkgrp=4:CCDL=2:RTPL=3 # DRAM timing parameters = {nbk:tCCD:tRRD:tRCD:tRAS:tRP:tRC:CL:WL:tCDLR:tWR:nbkgrp:tCCDL:tRTPL}
-rop_latency                          120 # ROP queue latency (default 85)
-dram_latency                         100 # DRAM latency (default 30)
-dual_bus_interface                     1 # dual_bus_interface (default = 0) 
-dram_bnk_indexing_policy                    0 # dram_bnk_indexing_policy (0 = normal indexing, 1 = Xoring with the higher bits) (Default = 0)
-dram_bnkgrp_indexing_policy                    1 # dram_bnkgrp_indexing_policy (0 = take higher bits, 1 = take lower bits) (Default = 0)
-Seperate_Write_Queue_Enable                    0 # Seperate_Write_Queue_Enable
-Write_Queue_Size                32:28:16 # Write_Queue_Size
-Elimnate_rw_turnaround                    0 # elimnate_rw_turnaround i.e set tWTR and tRTW = 0
-icnt_flit_size                        40 # icnt_flit_size
-gpgpu_mem_addr_mapping dramid@8;00000000.00000000.00000000.00000000.0000RRRR.RRRRRRRR.RBBBCCCB.CCCSSSSS # mapping memory address to dram model {dramid@<start bit>;<memory address map>}
-gpgpu_mem_addr_test                    0 # run sweep test to check address mapping for aliased address
-gpgpu_mem_address_mask                    1 # 0 = old addressing mask, 1 = new addressing mask, 2 = new add. mask + flipped bank sel and chip sel bits
-memory_partition_indexing                    0 # 0 = no indexing, 1 = bitwise xoring, 2 = IPoly, 3 = custom indexing
-gpuwattch_xml_file  gpuwattch_gtx1080Ti_to_volta.xml # GPUWattch XML file
-power_simulation_enabled                    1 # Turn on power simulator (1=On, 0=Off)
-power_per_cycle_dump                    0 # Dump detailed power output each cycle
-power_trace_enabled                    0 # produce a file for the power trace (1=On, 0=Off)
-power_trace_zlevel                     6 # Compression level of the power trace output log (0=no comp, 9=highest)
-steady_power_levels_enabled                    0 # produce a file for the steady power levels (1=On, 0=Off)
-steady_state_definition                  8:4 # allowed deviation:number of samples
-gpgpu_max_cycle                        0 # terminates gpu simulation early (0 = no limit)
-gpgpu_max_insn                         0 # terminates gpu simulation early (0 = no limit)
-gpgpu_max_cta                          0 # terminates gpu simulation early (0 = no limit)
-gpgpu_runtime_stat                   500 # display runtime statistics such as dram utilization {<freq>:<flag>}
-liveness_message_freq                    1 # Minimum number of seconds between simulation liveness messages (0 = always print)
-gpgpu_compute_capability_major                    7 # Major compute capability version number
-gpgpu_compute_capability_minor                    0 # Minor compute capability version number
-gpgpu_flush_l1_cache                    1 # Flush L1 cache at the end of each kernel call
-gpgpu_flush_l2_cache                    0 # Flush L2 cache at the end of each kernel call
-gpgpu_deadlock_detect                    1 # Stop the simulation at deadlock (1=on (default), 0=off)
-gpgpu_ptx_instruction_classification                    0 # if enabled will classify ptx instruction types per kernel (Max 255 kernels now)
-gpgpu_ptx_sim_mode                     0 # Select between Performance (default) or Functional simulation (1)
-gpgpu_clock_domains 1455.0:1455.0:1455.0:850.0 # Clock Domain Frequencies in MhZ {<Core Clock>:<ICNT Clock>:<L2 Clock>:<DRAM Clock>}
-gpgpu_max_concurrent_kernel                    8 # maximum kernels that can run concurrently on GPU
-gpgpu_cflog_interval                    0 # Interval between each snapshot in control flow logger
-visualizer_enabled                     0 # Turn on visualizer output (1=On, 0=Off)
-visualizer_outputfile                 NULL # Specifies the output log file for visualizer
-visualizer_zlevel                      6 # Compression level of the visualizer output log (0=no comp, 9=highest)
-gpgpu_stack_size_limit                 1024 # GPU thread stack size
-gpgpu_heap_size_limit              8388608 # GPU malloc heap size 
-gpgpu_runtime_sync_depth_limit                    2 # GPU device runtime synchronize depth
-gpgpu_runtime_pending_launch_count_limit                 2048 # GPU device runtime pending launch count
-trace_enabled                          0 # Turn on traces
-trace_components                    none # comma seperated list of traces to enable. Complete list found in trace_streams.tup. Default none
-trace_sampling_core                    0 # The core which is printed using CORE_DPRINTF. Default 0
-trace_sampling_memory_partition                   -1 # The memory partition which is printed using MEMPART_DPRINTF. Default -1 (i.e. all)
-enable_ptx_file_line_stats                    1 # Turn on PTX source line statistic profiling. (1 = On)
-ptx_line_stats_filename gpgpu_inst_stats.txt # Output file for PTX source line statistics.
-gpgpu_kernel_launch_latency                    0 # Kernel launch latency in cycles. Default: 0
-gpgpu_cdp_enabled                      0 # Turn on CDP
DRAM Timing Options:
nbk                                    16 # number of banks
CCD                                     1 # column to column delay
RRD                                     3 # minimal delay between activation of rows in different banks
RCD                                    12 # row to column delay
RAS                                    28 # time needed to activate row
RP                                     12 # time needed to precharge (deactivate) row
RC                                     40 # row cycle time
CDLR                                    3 # switching from write to read (changes tWTR)
WR                                     10 # last data-in to row precharge
CL                                     12 # CAS latency
WL                                      2 # Write latency
nbkgrp                                  4 # number of bank groups
CCDL                                    2 # column to column delay between accesses to different bank groups
RTPL                                    3 # read to precharge delay between accesses to different bank groups
Total number of memory sub partition = 64
addr_dec_mask[CHIP]  = 0000000000001f00 	high:13 low:8
addr_dec_mask[BK]    = 00000000000e2000 	high:20 low:13
addr_dec_mask[ROW]   = 00000001fff00000 	high:33 low:20
addr_dec_mask[COL]   = 000000000001c0ff 	high:17 low:0
addr_dec_mask[BURST] = 000000000000001f 	high:5 low:0
sub_partition_id_mask = 0000000000002000
GPGPU-Sim uArch: clock freqs: 1455000000.000000:1455000000.000000:1455000000.000000:850000000.000000
GPGPU-Sim uArch: clock periods: 0.00000000068728522337:0.00000000068728522337:0.00000000068728522337:0.00000000117647058824
*** Initializing Memory Statistics ***
GPGPU-Sim uArch: interconnect node map (shaderID+MemID to icntID)
GPGPU-Sim uArch: Memory nodes ID start from index: 40
GPGPU-Sim uArch:    0   1   2   3   4   5   6   7   8   9
GPGPU-Sim uArch:   10  11  12  13  14  15  16  17  18  19
GPGPU-Sim uArch:   20  21  22  23  24  25  26  27  28  29
GPGPU-Sim uArch:   30  31  32  33  34  35  36  37  38  39
GPGPU-Sim uArch:   40  41  42  43  44  45  46  47  48  49
GPGPU-Sim uArch:   50  51  52  53  54  55  56  57  58  59
GPGPU-Sim uArch:   60  61  62  63  64  65  66  67  68  69
GPGPU-Sim uArch:   70  71  72  73  74  75  76  77  78  79
GPGPU-Sim uArch:   80  81  82  83  84  85  86  87  88  89
GPGPU-Sim uArch:   90  91  92  93  94  95  96  97  98  99
GPGPU-Sim uArch:  100 101 102 103
GPGPU-Sim uArch: interconnect node reverse map (icntID to shaderID+MemID)
GPGPU-Sim uArch: Memory nodes start from ID: 40
GPGPU-Sim uArch:    0   1   2   3   4   5   6   7   8   9
GPGPU-Sim uArch:   10  11  12  13  14  15  16  17  18  19
GPGPU-Sim uArch:   20  21  22  23  24  25  26  27  28  29
GPGPU-Sim uArch:   30  31  32  33  34  35  36  37  38  39
GPGPU-Sim uArch:   40  41  42  43  44  45  46  47  48  49
GPGPU-Sim uArch:   50  51  52  53  54  55  56  57  58  59
GPGPU-Sim uArch:   60  61  62  63  64  65  66  67  68  69
GPGPU-Sim uArch:   70  71  72  73  74  75  76  77  78  79
GPGPU-Sim uArch:   80  81  82  83  84  85  86  87  88  89
GPGPU-Sim uArch:   90  91  92  93  94  95  96  97  98  99
GPGPU-Sim uArch:  100 101 102 103
067e2f823741fb9f6b9b948ed699b47c  /home/seongguk/rodinia_3.1_dev/bin/linux/cuda/backprop
Extracting PTX file and ptxas options    1: backprop.1.sm_30.ptx -arch=sm_30
GPGPU-Sim uArch: performance model initialization complete.
self exe links to: /home/seongguk/rodinia_3.1_dev/bin/linux/cuda/backprop
self exe links to: /home/seongguk/rodinia_3.1_dev/bin/linux/cuda/backprop
9.1
GPGPU-Sim PTX: __cudaRegisterFatBinary, fat_cubin_handle = 1, filename=default
self exe links to: /home/seongguk/rodinia_3.1_dev/bin/linux/cuda/backprop
Running md5sum using "md5sum /home/seongguk/rodinia_3.1_dev/bin/linux/cuda/backprop "
self exe links to: /home/seongguk/rodinia_3.1_dev/bin/linux/cuda/backprop
Extracting specific PTX file named backprop.1.sm_30.ptx 
GPGPU-Sim PTX: __cudaRegisterFunction _Z24bpnn_adjust_weights_cudaPfiS_iS_S_ : hostFun 0x0x402350, fat_cubin_handle = 1
GPGPU-Sim PTX: Parsing backprop.1.sm_30.ptx
GPGPU-Sim PTX: allocating shared region for "_Z22bpnn_layerforward_CUDAPfS_S_S_ii$__cuda_local_var_17647_34_non_const_input_node" from 0x0 to 0x40 (shared memory space)
GPGPU-Sim PTX: allocating shared region for "_Z22bpnn_layerforward_CUDAPfS_S_S_ii$__cuda_local_var_17648_34_non_const_weight_matrix" from 0x80 to 0x480 (shared memory space)
GPGPU-Sim PTX: instruction assembly for function '_Z22bpnn_layerforward_CUDAPfS_S_S_ii'...   done.
GPGPU-Sim PTX: instruction assembly for function '_Z24bpnn_adjust_weights_cudaPfiS_iS_S_'...   done.
GPGPU-Sim PTX: finished parsing EMBEDDED .ptx file backprop.1.sm_30.ptx
GPGPU-Sim PTX: loading globals with explicit initializers... 
GPGPU-Sim PTX: finished loading globals (0 bytes total).
GPGPU-Sim PTX: loading constants with explicit initializers...  done.
GPGPU-Sim PTX: Loading PTXInfo from backprop.1.sm_30.ptx
GPGPU-Sim PTX: Kernel '_Z24bpnn_adjust_weights_cudaPfiS_iS_S_' : regs=21, lmem=0, smem=0, cmem=376
GPGPU-Sim PTX: Kernel '_Z22bpnn_layerforward_CUDAPfS_S_S_ii' : regs=14, lmem=0, smem=1088, cmem=360
GPGPU-Sim PTX: __cudaRegisterFunction _Z22bpnn_layerforward_CUDAPfS_S_S_ii : hostFun 0x0x402270, fat_cubin_handle = 1
Random number generator seed: 7
Input layer size : 524288
Starting training kernel
Performing GPU computation
GPGPU-Sim PTX: Setting up arguments for 8 bytes starting at 0x7ffe261006c8..
GPGPU-Sim PTX: Setting up arguments for 8 bytes starting at 0x7ffe261006c0..
GPGPU-Sim PTX: Setting up arguments for 8 bytes starting at 0x7ffe261006b8..
GPGPU-Sim PTX: Setting up arguments for 8 bytes starting at 0x7ffe261006b0..
GPGPU-Sim PTX: Setting up arguments for 4 bytes starting at 0x7ffe261006ac..
GPGPU-Sim PTX: Setting up arguments for 4 bytes starting at 0x7ffe261006a8..

GPGPU-Sim PTX: cudaLaunch for 0x0x402270 (mode=performance simulation) on stream 0
GPGPU-Sim PTX: finding reconvergence points for '_Z22bpnn_layerforward_CUDAPfS_S_S_ii'...
GPGPU-Sim PTX: Finding dominators for '_Z22bpnn_layerforward_CUDAPfS_S_S_ii'...
GPGPU-Sim PTX: Finding immediate dominators for '_Z22bpnn_layerforward_CUDAPfS_S_S_ii'...
GPGPU-Sim PTX: Finding postdominators for '_Z22bpnn_layerforward_CUDAPfS_S_S_ii'...
GPGPU-Sim PTX: Finding immediate postdominators for '_Z22bpnn_layerforward_CUDAPfS_S_S_ii'...
GPGPU-Sim PTX: pre-decoding instructions for '_Z22bpnn_layerforward_CUDAPfS_S_S_ii'...
GPGPU-Sim PTX: reconvergence points for _Z22bpnn_layerforward_CUDAPfS_S_S_ii...
GPGPU-Sim PTX:  1 (potential) branch divergence @  PC=0x068 (backprop.1.sm_30.ptx:48) @%p2 bra BB0_2;
GPGPU-Sim PTX:    immediate post dominator      @  PC=0x098 (backprop.1.sm_30.ptx:57) cvta.to.global.u64 %rd1, %rd4;
GPGPU-Sim PTX:  2 (potential) branch divergence @  PC=0x150 (backprop.1.sm_30.ptx:80) @%p3 bra BB0_7;
GPGPU-Sim PTX:    immediate post dominator      @  PC=0x228 (backprop.1.sm_30.ptx:115) setp.eq.s32%p1, %r4, 0;
GPGPU-Sim PTX:  3 (potential) branch divergence @  PC=0x1a0 (backprop.1.sm_30.ptx:93) @%p4 bra BB0_6;
GPGPU-Sim PTX:    immediate post dominator      @  PC=0x200 (backprop.1.sm_30.ptx:108) bar.sync 0;
GPGPU-Sim PTX:  4 (potential) branch divergence @  PC=0x220 (backprop.1.sm_30.ptx:112) @%p5 bra BB0_4;
GPGPU-Sim PTX:    immediate post dominator      @  PC=0x228 (backprop.1.sm_30.ptx:115) setp.eq.s32%p1, %r4, 0;
GPGPU-Sim PTX:  5 (potential) branch divergence @  PC=0x248 (backprop.1.sm_30.ptx:119) @!%p1 bra BB0_9;
GPGPU-Sim PTX:    immediate post dominator      @  PC=0x290 (backprop.1.sm_30.ptx:132) ret;
GPGPU-Sim PTX:  6 (potential) branch divergence @  PC=0x250 (backprop.1.sm_30.ptx:120) bra.uni BB0_8;
GPGPU-Sim PTX:    immediate post dominator      @  PC=0x258 (backprop.1.sm_30.ptx:123) cvta.to.global.u64 %rd10, %rd5;
GPGPU-Sim PTX: ... end of reconvergence points for _Z22bpnn_layerforward_CUDAPfS_S_S_ii
GPGPU-Sim PTX: ... done pre-decoding instructions for '_Z22bpnn_layerforward_CUDAPfS_S_S_ii'.
GPGPU-Sim PTX: pushing kernel '_Z22bpnn_layerforward_CUDAPfS_S_S_ii' to stream 0, gridDim= (1,32768,1) blockDim = (16,16,1) 
GPGPU-Sim uArch: Shader 0 bind to kernel 1 '_Z22bpnn_layerforward_CUDAPfS_S_S_ii'
GPGPU-Sim uArch: CTA/core = 8, limited by: threads
GPGPU-Sim: Reconfigure L1 cache in Volta Archi to 112KB
GPGPU-Sim uArch: Shader 2 bind to kernel 1 '_Z22bpnn_layerforward_CUDAPfS_S_S_ii'
GPGPU-Sim uArch: Shader 4 bind to kernel 1 '_Z22bpnn_layerforward_CUDAPfS_S_S_ii'
GPGPU-Sim uArch: Shader 6 bind to kernel 1 '_Z22bpnn_layerforward_CUDAPfS_S_S_ii'
GPGPU-Sim uArch: Shader 8 bind to kernel 1 '_Z22bpnn_layerforward_CUDAPfS_S_S_ii'
GPGPU-Sim uArch: Shader 10 bind to kernel 1 '_Z22bpnn_layerforward_CUDAPfS_S_S_ii'
GPGPU-Sim uArch: Shader 12 bind to kernel 1 '_Z22bpnn_layerforward_CUDAPfS_S_S_ii'
GPGPU-Sim uArch: Shader 14 bind to kernel 1 '_Z22bpnn_layerforward_CUDAPfS_S_S_ii'
GPGPU-Sim uArch: Shader 16 bind to kernel 1 '_Z22bpnn_layerforward_CUDAPfS_S_S_ii'
GPGPU-Sim uArch: Shader 18 bind to kernel 1 '_Z22bpnn_layerforward_CUDAPfS_S_S_ii'
GPGPU-Sim uArch: Shader 20 bind to kernel 1 '_Z22bpnn_layerforward_CUDAPfS_S_S_ii'
GPGPU-Sim uArch: Shader 22 bind to kernel 1 '_Z22bpnn_layerforward_CUDAPfS_S_S_ii'
GPGPU-Sim uArch: Shader 24 bind to kernel 1 '_Z22bpnn_layerforward_CUDAPfS_S_S_ii'
GPGPU-Sim uArch: Shader 26 bind to kernel 1 '_Z22bpnn_layerforward_CUDAPfS_S_S_ii'
GPGPU-Sim uArch: Shader 28 bind to kernel 1 '_Z22bpnn_layerforward_CUDAPfS_S_S_ii'
GPGPU-Sim uArch: Shader 30 bind to kernel 1 '_Z22bpnn_layerforward_CUDAPfS_S_S_ii'
GPGPU-Sim uArch: Shader 32 bind to kernel 1 '_Z22bpnn_layerforward_CUDAPfS_S_S_ii'
GPGPU-Sim uArch: Shader 34 bind to kernel 1 '_Z22bpnn_layerforward_CUDAPfS_S_S_ii'
GPGPU-Sim uArch: Shader 36 bind to kernel 1 '_Z22bpnn_layerforward_CUDAPfS_S_S_ii'
GPGPU-Sim uArch: Shader 38 bind to kernel 1 '_Z22bpnn_layerforward_CUDAPfS_S_S_ii'
GPGPU-Sim uArch: Shader 40 bind to kernel 1 '_Z22bpnn_layerforward_CUDAPfS_S_S_ii'
GPGPU-Sim uArch: Shader 42 bind to kernel 1 '_Z22bpnn_layerforward_CUDAPfS_S_S_ii'
GPGPU-Sim uArch: Shader 44 bind to kernel 1 '_Z22bpnn_layerforward_CUDAPfS_S_S_ii'
GPGPU-Sim uArch: Shader 46 bind to kernel 1 '_Z22bpnn_layerforward_CUDAPfS_S_S_ii'
GPGPU-Sim uArch: Shader 48 bind to kernel 1 '_Z22bpnn_layerforward_CUDAPfS_S_S_ii'
GPGPU-Sim uArch: Shader 50 bind to kernel 1 '_Z22bpnn_layerforward_CUDAPfS_S_S_ii'
GPGPU-Sim uArch: Shader 52 bind to kernel 1 '_Z22bpnn_layerforward_CUDAPfS_S_S_ii'
GPGPU-Sim uArch: Shader 54 bind to kernel 1 '_Z22bpnn_layerforward_CUDAPfS_S_S_ii'
GPGPU-Sim uArch: Shader 56 bind to kernel 1 '_Z22bpnn_layerforward_CUDAPfS_S_S_ii'
GPGPU-Sim uArch: Shader 58 bind to kernel 1 '_Z22bpnn_layerforward_CUDAPfS_S_S_ii'
GPGPU-Sim uArch: Shader 60 bind to kernel 1 '_Z22bpnn_layerforward_CUDAPfS_S_S_ii'
GPGPU-Sim uArch: Shader 62 bind to kernel 1 '_Z22bpnn_layerforward_CUDAPfS_S_S_ii'
GPGPU-Sim uArch: Shader 64 bind to kernel 1 '_Z22bpnn_layerforward_CUDAPfS_S_S_ii'
GPGPU-Sim uArch: Shader 66 bind to kernel 1 '_Z22bpnn_layerforward_CUDAPfS_S_S_ii'
GPGPU-Sim uArch: Shader 68 bind to kernel 1 '_Z22bpnn_layerforward_CUDAPfS_S_S_ii'
GPGPU-Sim uArch: Shader 70 bind to kernel 1 '_Z22bpnn_layerforward_CUDAPfS_S_S_ii'
GPGPU-Sim uArch: Shader 72 bind to kernel 1 '_Z22bpnn_layerforward_CUDAPfS_S_S_ii'
GPGPU-Sim uArch: Shader 74 bind to kernel 1 '_Z22bpnn_layerforward_CUDAPfS_S_S_ii'
GPGPU-Sim uArch: Shader 76 bind to kernel 1 '_Z22bpnn_layerforward_CUDAPfS_S_S_ii'
GPGPU-Sim uArch: Shader 78 bind to kernel 1 '_Z22bpnn_layerforward_CUDAPfS_S_S_ii'
GPGPU-Sim uArch: Shader 1 bind to kernel 1 '_Z22bpnn_layerforward_CUDAPfS_S_S_ii'
GPGPU-Sim uArch: Shader 3 bind to kernel 1 '_Z22bpnn_layerforward_CUDAPfS_S_S_ii'
GPGPU-Sim uArch: Shader 5 bind to kernel 1 '_Z22bpnn_layerforward_CUDAPfS_S_S_ii'
GPGPU-Sim uArch: Shader 7 bind to kernel 1 '_Z22bpnn_layerforward_CUDAPfS_S_S_ii'
GPGPU-Sim uArch: Shader 9 bind to kernel 1 '_Z22bpnn_layerforward_CUDAPfS_S_S_ii'
GPGPU-Sim uArch: Shader 11 bind to kernel 1 '_Z22bpnn_layerforward_CUDAPfS_S_S_ii'
GPGPU-Sim uArch: Shader 13 bind to kernel 1 '_Z22bpnn_layerforward_CUDAPfS_S_S_ii'
GPGPU-Sim uArch: Shader 15 bind to kernel 1 '_Z22bpnn_layerforward_CUDAPfS_S_S_ii'
GPGPU-Sim uArch: Shader 17 bind to kernel 1 '_Z22bpnn_layerforward_CUDAPfS_S_S_ii'
GPGPU-Sim uArch: Shader 19 bind to kernel 1 '_Z22bpnn_layerforward_CUDAPfS_S_S_ii'
GPGPU-Sim uArch: Shader 21 bind to kernel 1 '_Z22bpnn_layerforward_CUDAPfS_S_S_ii'
GPGPU-Sim uArch: Shader 23 bind to kernel 1 '_Z22bpnn_layerforward_CUDAPfS_S_S_ii'
GPGPU-Sim uArch: Shader 25 bind to kernel 1 '_Z22bpnn_layerforward_CUDAPfS_S_S_ii'
GPGPU-Sim uArch: Shader 27 bind to kernel 1 '_Z22bpnn_layerforward_CUDAPfS_S_S_ii'
GPGPU-Sim uArch: Shader 29 bind to kernel 1 '_Z22bpnn_layerforward_CUDAPfS_S_S_ii'
GPGPU-Sim uArch: Shader 31 bind to kernel 1 '_Z22bpnn_layerforward_CUDAPfS_S_S_ii'
GPGPU-Sim uArch: Shader 33 bind to kernel 1 '_Z22bpnn_layerforward_CUDAPfS_S_S_ii'
GPGPU-Sim uArch: Shader 35 bind to kernel 1 '_Z22bpnn_layerforward_CUDAPfS_S_S_ii'
GPGPU-Sim uArch: Shader 37 bind to kernel 1 '_Z22bpnn_layerforward_CUDAPfS_S_S_ii'
GPGPU-Sim uArch: Shader 39 bind to kernel 1 '_Z22bpnn_layerforward_CUDAPfS_S_S_ii'
GPGPU-Sim uArch: Shader 41 bind to kernel 1 '_Z22bpnn_layerforward_CUDAPfS_S_S_ii'
GPGPU-Sim uArch: Shader 43 bind to kernel 1 '_Z22bpnn_layerforward_CUDAPfS_S_S_ii'
GPGPU-Sim uArch: Shader 45 bind to kernel 1 '_Z22bpnn_layerforward_CUDAPfS_S_S_ii'
GPGPU-Sim uArch: Shader 47 bind to kernel 1 '_Z22bpnn_layerforward_CUDAPfS_S_S_ii'
GPGPU-Sim uArch: Shader 49 bind to kernel 1 '_Z22bpnn_layerforward_CUDAPfS_S_S_ii'
GPGPU-Sim uArch: Shader 51 bind to kernel 1 '_Z22bpnn_layerforward_CUDAPfS_S_S_ii'
GPGPU-Sim uArch: Shader 53 bind to kernel 1 '_Z22bpnn_layerforward_CUDAPfS_S_S_ii'
GPGPU-Sim uArch: Shader 55 bind to kernel 1 '_Z22bpnn_layerforward_CUDAPfS_S_S_ii'
GPGPU-Sim uArch: Shader 57 bind to kernel 1 '_Z22bpnn_layerforward_CUDAPfS_S_S_ii'
GPGPU-Sim uArch: Shader 59 bind to kernel 1 '_Z22bpnn_layerforward_CUDAPfS_S_S_ii'
GPGPU-Sim uArch: Shader 61 bind to kernel 1 '_Z22bpnn_layerforward_CUDAPfS_S_S_ii'
GPGPU-Sim uArch: Shader 63 bind to kernel 1 '_Z22bpnn_layerforward_CUDAPfS_S_S_ii'
GPGPU-Sim uArch: Shader 65 bind to kernel 1 '_Z22bpnn_layerforward_CUDAPfS_S_S_ii'
GPGPU-Sim uArch: Shader 67 bind to kernel 1 '_Z22bpnn_layerforward_CUDAPfS_S_S_ii'
GPGPU-Sim uArch: Shader 69 bind to kernel 1 '_Z22bpnn_layerforward_CUDAPfS_S_S_ii'
GPGPU-Sim uArch: Shader 71 bind to kernel 1 '_Z22bpnn_layerforward_CUDAPfS_S_S_ii'
GPGPU-Sim uArch: Shader 73 bind to kernel 1 '_Z22bpnn_layerforward_CUDAPfS_S_S_ii'
GPGPU-Sim uArch: Shader 75 bind to kernel 1 '_Z22bpnn_layerforward_CUDAPfS_S_S_ii'
GPGPU-Sim uArch: Shader 77 bind to kernel 1 '_Z22bpnn_layerforward_CUDAPfS_S_S_ii'
GPGPU-Sim uArch: Shader 79 bind to kernel 1 '_Z22bpnn_layerforward_CUDAPfS_S_S_ii'
Destroy streams for kernel 1: size 0
kernel_name = _Z22bpnn_layerforward_CUDAPfS_S_S_ii 
kernel_launch_uid = 1 
gpu_sim_cycle = 226496
gpu_sim_insn = 839385088
gpu_ipc =    3705.9600
gpu_tot_sim_cycle = 226496
gpu_tot_sim_insn = 839385088
gpu_tot_ipc =    3705.9600
gpu_tot_issued_cta = 32768
gpu_occupancy = 98.9600% 
gpu_tot_occupancy = 98.9600% 
max_total_param_size = 0
gpu_stall_dramfull = 1949
gpu_stall_icnt2sh    = 0
partiton_level_parallism =      12.4385
partiton_level_parallism_total  =      12.4385
partiton_level_parallism_util =      12.8385
partiton_level_parallism_util_total  =      12.8385
L2_BW  =     579.4485 GB/Sec
L2_BW_total  =     579.4485 GB/Sec
gpu_total_sim_rate=165853

========= Core cache stats =========
L1I_cache:
	L1I_total_cache_accesses = 17629184
	L1I_total_cache_misses = 22918
	L1I_total_cache_miss_rate = 0.0013
	L1I_total_cache_pending_hits = 0
	L1I_total_cache_reservation_fails = 143267
L1D_cache:
	L1D_cache_core[0]: Access = 80262, Miss = 51612, Miss_rate = 0.643, Pending_hits = 0, Reservation_fails = 0
	L1D_cache_core[1]: Access = 80458, Miss = 51735, Miss_rate = 0.643, Pending_hits = 0, Reservation_fails = 0
	L1D_cache_core[2]: Access = 80360, Miss = 51671, Miss_rate = 0.643, Pending_hits = 0, Reservation_fails = 0
	L1D_cache_core[3]: Access = 80556, Miss = 51800, Miss_rate = 0.643, Pending_hits = 0, Reservation_fails = 0
	L1D_cache_core[4]: Access = 80360, Miss = 51674, Miss_rate = 0.643, Pending_hits = 0, Reservation_fails = 0
	L1D_cache_core[5]: Access = 79870, Miss = 51374, Miss_rate = 0.643, Pending_hits = 0, Reservation_fails = 0
	L1D_cache_core[6]: Access = 79968, Miss = 51425, Miss_rate = 0.643, Pending_hits = 0, Reservation_fails = 0
	L1D_cache_core[7]: Access = 80066, Miss = 51491, Miss_rate = 0.643, Pending_hits = 0, Reservation_fails = 0
	L1D_cache_core[8]: Access = 80556, Miss = 51800, Miss_rate = 0.643, Pending_hits = 0, Reservation_fails = 0
	L1D_cache_core[9]: Access = 80458, Miss = 51736, Miss_rate = 0.643, Pending_hits = 0, Reservation_fails = 0
	L1D_cache_core[10]: Access = 80164, Miss = 51549, Miss_rate = 0.643, Pending_hits = 0, Reservation_fails = 0
	L1D_cache_core[11]: Access = 80360, Miss = 51675, Miss_rate = 0.643, Pending_hits = 0, Reservation_fails = 0
	L1D_cache_core[12]: Access = 80360, Miss = 51682, Miss_rate = 0.643, Pending_hits = 0, Reservation_fails = 0
	L1D_cache_core[13]: Access = 80164, Miss = 51550, Miss_rate = 0.643, Pending_hits = 0, Reservation_fails = 0
	L1D_cache_core[14]: Access = 80066, Miss = 51489, Miss_rate = 0.643, Pending_hits = 0, Reservation_fails = 0
	L1D_cache_core[15]: Access = 80066, Miss = 51483, Miss_rate = 0.643, Pending_hits = 0, Reservation_fails = 0
	L1D_cache_core[16]: Access = 80360, Miss = 51674, Miss_rate = 0.643, Pending_hits = 0, Reservation_fails = 0
	L1D_cache_core[17]: Access = 80360, Miss = 51673, Miss_rate = 0.643, Pending_hits = 0, Reservation_fails = 0
	L1D_cache_core[18]: Access = 79968, Miss = 51436, Miss_rate = 0.643, Pending_hits = 0, Reservation_fails = 0
	L1D_cache_core[19]: Access = 79968, Miss = 51428, Miss_rate = 0.643, Pending_hits = 0, Reservation_fails = 0
	L1D_cache_core[20]: Access = 80654, Miss = 51856, Miss_rate = 0.643, Pending_hits = 0, Reservation_fails = 0
	L1D_cache_core[21]: Access = 80458, Miss = 51741, Miss_rate = 0.643, Pending_hits = 0, Reservation_fails = 0
	L1D_cache_core[22]: Access = 80360, Miss = 51674, Miss_rate = 0.643, Pending_hits = 0, Reservation_fails = 0
	L1D_cache_core[23]: Access = 80654, Miss = 51867, Miss_rate = 0.643, Pending_hits = 0, Reservation_fails = 0
	L1D_cache_core[24]: Access = 80262, Miss = 51611, Miss_rate = 0.643, Pending_hits = 0, Reservation_fails = 0
	L1D_cache_core[25]: Access = 80458, Miss = 51735, Miss_rate = 0.643, Pending_hits = 0, Reservation_fails = 0
	L1D_cache_core[26]: Access = 80360, Miss = 51676, Miss_rate = 0.643, Pending_hits = 0, Reservation_fails = 0
	L1D_cache_core[27]: Access = 80164, Miss = 51553, Miss_rate = 0.643, Pending_hits = 0, Reservation_fails = 0
	L1D_cache_core[28]: Access = 80360, Miss = 51680, Miss_rate = 0.643, Pending_hits = 0, Reservation_fails = 0
	L1D_cache_core[29]: Access = 80556, Miss = 51804, Miss_rate = 0.643, Pending_hits = 0, Reservation_fails = 0
	L1D_cache_core[30]: Access = 79968, Miss = 51428, Miss_rate = 0.643, Pending_hits = 0, Reservation_fails = 0
	L1D_cache_core[31]: Access = 80262, Miss = 51607, Miss_rate = 0.643, Pending_hits = 0, Reservation_fails = 0
	L1D_cache_core[32]: Access = 80066, Miss = 51485, Miss_rate = 0.643, Pending_hits = 0, Reservation_fails = 0
	L1D_cache_core[33]: Access = 80164, Miss = 51555, Miss_rate = 0.643, Pending_hits = 0, Reservation_fails = 0
	L1D_cache_core[34]: Access = 80556, Miss = 51796, Miss_rate = 0.643, Pending_hits = 0, Reservation_fails = 0
	L1D_cache_core[35]: Access = 80164, Miss = 51555, Miss_rate = 0.643, Pending_hits = 0, Reservation_fails = 0
	L1D_cache_core[36]: Access = 80262, Miss = 51614, Miss_rate = 0.643, Pending_hits = 0, Reservation_fails = 0
	L1D_cache_core[37]: Access = 80164, Miss = 51546, Miss_rate = 0.643, Pending_hits = 0, Reservation_fails = 0
	L1D_cache_core[38]: Access = 80066, Miss = 51492, Miss_rate = 0.643, Pending_hits = 0, Reservation_fails = 0
	L1D_cache_core[39]: Access = 80556, Miss = 51819, Miss_rate = 0.643, Pending_hits = 0, Reservation_fails = 0
	L1D_total_cache_accesses = 3211264
	L1D_total_cache_misses = 2065051
	L1D_total_cache_miss_rate = 0.6431
	L1D_total_cache_pending_hits = 0
	L1D_total_cache_reservation_fails = 0
	L1D_cache_data_port_util = 0.016
	L1D_cache_fill_port_util = 0.017
L1C_cache:
	L1C_total_cache_accesses = 1048576
	L1C_total_cache_misses = 5120
	L1C_total_cache_miss_rate = 0.0049
	L1C_total_cache_pending_hits = 0
	L1C_total_cache_reservation_fails = 125340
L1T_cache:
	L1T_total_cache_accesses = 0
	L1T_total_cache_misses = 0
	L1T_total_cache_pending_hits = 0
	L1T_total_cache_reservation_fails = 0

Total_core_cache_stats:
	Total_core_cache_stats_breakdown[GLOBAL_ACC_R][HIT] = 3
	Total_core_cache_stats_breakdown[GLOBAL_ACC_R][HIT_RESERVED] = 0
	Total_core_cache_stats_breakdown[GLOBAL_ACC_R][MISS] = 865606
	Total_core_cache_stats_breakdown[GLOBAL_ACC_R][RESERVATION_FAIL] = 0
	Total_core_cache_stats_breakdown[GLOBAL_ACC_R][SECTOR_MISS] = 772791
	Total_core_cache_stats_breakdown[LOCAL_ACC_R][HIT] = 0
	Total_core_cache_stats_breakdown[LOCAL_ACC_R][HIT_RESERVED] = 0
	Total_core_cache_stats_breakdown[LOCAL_ACC_R][MISS] = 0
	Total_core_cache_stats_breakdown[LOCAL_ACC_R][RESERVATION_FAIL] = 0
	Total_core_cache_stats_breakdown[LOCAL_ACC_R][SECTOR_MISS] = 0
	Total_core_cache_stats_breakdown[CONST_ACC_R][HIT] = 1043456
	Total_core_cache_stats_breakdown[CONST_ACC_R][HIT_RESERVED] = 0
	Total_core_cache_stats_breakdown[CONST_ACC_R][MISS] = 5120
	Total_core_cache_stats_breakdown[CONST_ACC_R][RESERVATION_FAIL] = 125340
	Total_core_cache_stats_breakdown[CONST_ACC_R][SECTOR_MISS] = 0
	Total_core_cache_stats_breakdown[TEXTURE_ACC_R][HIT] = 0
	Total_core_cache_stats_breakdown[TEXTURE_ACC_R][HIT_RESERVED] = 0
	Total_core_cache_stats_breakdown[TEXTURE_ACC_R][MISS] = 0
	Total_core_cache_stats_breakdown[TEXTURE_ACC_R][RESERVATION_FAIL] = 0
	Total_core_cache_stats_breakdown[TEXTURE_ACC_R][SECTOR_MISS] = 0
	Total_core_cache_stats_breakdown[GLOBAL_ACC_W][HIT] = 1146210
	Total_core_cache_stats_breakdown[GLOBAL_ACC_W][HIT_RESERVED] = 0
	Total_core_cache_stats_breakdown[GLOBAL_ACC_W][MISS] = 407527
	Total_core_cache_stats_breakdown[GLOBAL_ACC_W][RESERVATION_FAIL] = 0
	Total_core_cache_stats_breakdown[GLOBAL_ACC_W][SECTOR_MISS] = 19127
	Total_core_cache_stats_breakdown[LOCAL_ACC_W][HIT] = 0
	Total_core_cache_stats_breakdown[LOCAL_ACC_W][HIT_RESERVED] = 0
	Total_core_cache_stats_breakdown[LOCAL_ACC_W][MISS] = 0
	Total_core_cache_stats_breakdown[LOCAL_ACC_W][RESERVATION_FAIL] = 0
	Total_core_cache_stats_breakdown[LOCAL_ACC_W][SECTOR_MISS] = 0
	Total_core_cache_stats_breakdown[L1_WRBK_ACC][HIT] = 0
	Total_core_cache_stats_breakdown[L1_WRBK_ACC][HIT_RESERVED] = 0
	Total_core_cache_stats_breakdown[L1_WRBK_ACC][MISS] = 0
	Total_core_cache_stats_breakdown[L1_WRBK_ACC][RESERVATION_FAIL] = 0
	Total_core_cache_stats_breakdown[L1_WRBK_ACC][SECTOR_MISS] = 0
	Total_core_cache_stats_breakdown[L2_WRBK_ACC][HIT] = 0
	Total_core_cache_stats_breakdown[L2_WRBK_ACC][HIT_RESERVED] = 0
	Total_core_cache_stats_breakdown[L2_WRBK_ACC][MISS] = 0
	Total_core_cache_stats_breakdown[L2_WRBK_ACC][RESERVATION_FAIL] = 0
	Total_core_cache_stats_breakdown[L2_WRBK_ACC][SECTOR_MISS] = 0
	Total_core_cache_stats_breakdown[INST_ACC_R][HIT] = 17606266
	Total_core_cache_stats_breakdown[INST_ACC_R][HIT_RESERVED] = 0
	Total_core_cache_stats_breakdown[INST_ACC_R][MISS] = 22918
	Total_core_cache_stats_breakdown[INST_ACC_R][RESERVATION_FAIL] = 143267
	Total_core_cache_stats_breakdown[INST_ACC_R][SECTOR_MISS] = 0
	Total_core_cache_stats_breakdown[L1_WR_ALLOC_R][HIT] = 0
	Total_core_cache_stats_breakdown[L1_WR_ALLOC_R][HIT_RESERVED] = 0
	Total_core_cache_stats_breakdown[L1_WR_ALLOC_R][MISS] = 0
	Total_core_cache_stats_breakdown[L1_WR_ALLOC_R][RESERVATION_FAIL] = 0
	Total_core_cache_stats_breakdown[L1_WR_ALLOC_R][SECTOR_MISS] = 0
	Total_core_cache_stats_breakdown[L2_WR_ALLOC_R][HIT] = 0
	Total_core_cache_stats_breakdown[L2_WR_ALLOC_R][HIT_RESERVED] = 0
	Total_core_cache_stats_breakdown[L2_WR_ALLOC_R][MISS] = 0
	Total_core_cache_stats_breakdown[L2_WR_ALLOC_R][RESERVATION_FAIL] = 0
	Total_core_cache_stats_breakdown[L2_WR_ALLOC_R][SECTOR_MISS] = 0
	Total_core_cache_stats_breakdown[GLOBAL_ACC_R][TOTAL_ACCESS] = 1638400
	Total_core_cache_stats_breakdown[CONST_ACC_R][TOTAL_ACCESS] = 1048576
	Total_core_cache_stats_breakdown[GLOBAL_ACC_W][TOTAL_ACCESS] = 1572864
	Total_core_cache_stats_breakdown[INST_ACC_R][TOTAL_ACCESS] = 17629184

Total_core_cache_fail_stats:
	Total_core_cache_fail_stats_breakdown[CONST_ACC_R][MSHR_MERGE_ENRTY_FAIL] = 125340
	Total_core_cache_fail_stats_breakdown[INST_ACC_R][MSHR_MERGE_ENRTY_FAIL] = 143267
Shader 0 warp_id issue ditsribution:
warp_id:
0, 1, 2, 3, 4, 5, 6, 7, 8, 9, 10, 11, 12, 13, 14, 15, 16, 17, 18, 19, 20, 21, 22, 23, 24, 25, 26, 27, 28, 29, 30, 31, 32, 33, 34, 35, 36, 37, 38, 39, 40, 41, 42, 43, 44, 45, 46, 47, 48, 49, 50, 51, 52, 53, 54, 55, 56, 57, 58, 59, 60, 61, 62, 63, 
distro:
7599, 5916, 6477, 5916, 7038, 5916, 6477, 5916, 7599, 5916, 6477, 5916, 7038, 5916, 6477, 5916, 7748, 6032, 6604, 6032, 7176, 6032, 6604, 6032, 7599, 5916, 6477, 5916, 7038, 5916, 6477, 5916, 7599, 5916, 6477, 5916, 7038, 5916, 6477, 5916, 7599, 5916, 6477, 5916, 7038, 5916, 6477, 5916, 7599, 5916, 6477, 5916, 7038, 5916, 6477, 5916, 7599, 5916, 6477, 5916, 7038, 5916, 6477, 5916, 
gpgpu_n_tot_thrd_icount = 1053818880
gpgpu_n_tot_w_icount = 32931840
gpgpu_n_stall_shd_mem = 2288028
gpgpu_n_mem_read_local = 0
gpgpu_n_mem_write_local = 0
gpgpu_n_mem_read_global = 1243844
gpgpu_n_mem_write_global = 1572864
gpgpu_n_mem_texture = 0
gpgpu_n_mem_const = 80
gpgpu_n_load_insn  = 8912896
gpgpu_n_store_insn = 8912896
gpgpu_n_shmem_insn = 66584576
gpgpu_n_sstarr_insn = 0
gpgpu_n_tex_insn = 0
gpgpu_n_const_mem_insn = 0
gpgpu_n_param_mem_insn = 33554432
gpgpu_n_shmem_bkconflict = 0
gpgpu_n_cache_bkconflict = 0
gpgpu_n_intrawarp_mshr_merge = 0
gpgpu_n_cmem_portconflict = 125340
gpgpu_stall_shd_mem[c_mem][resource_stall] = 125340
gpgpu_stall_shd_mem[s_mem][bk_conf] = 0
gpgpu_stall_shd_mem[gl_mem][resource_stall] = 0
gpgpu_stall_shd_mem[gl_mem][coal_stall] = 2162688
gpgpu_stall_shd_mem[gl_mem][data_port_stall] = 0
gpu_reg_bank_conflict_stalls = 0
Warp Occupancy Distribution:
Stall:971426	W0_Idle:2375492	W0_Scoreboard:35893774	W1:0	W2:3407872	W3:0	W4:0	W5:0	W6:0	W7:0	W8:0	W9:0	W10:0	W11:0	W12:0	W13:0	W14:0	W15:0	W16:5406720	W17:0	W18:0	W19:0	W20:0	W21:0	W22:0	W23:0	W24:0	W25:0	W26:0	W27:0	W28:0	W29:0	W30:0	W31:0	W32:24117248
single_issue_nums: WS0:9404416	WS1:7602176	WS2:8323072	WS3:7602176	
dual_issue_nums: WS0:0	WS1:0	WS2:0	WS3:0	
traffic_breakdown_coretomem[CONST_ACC_R] = 640 {8:80,}
traffic_breakdown_coretomem[GLOBAL_ACC_R] = 9950752 {8:1243844,}
traffic_breakdown_coretomem[GLOBAL_ACC_W] = 62914560 {40:1572864,}
traffic_breakdown_coretomem[INST_ACC_R] = 3840 {8:480,}
traffic_breakdown_memtocore[CONST_ACC_R] = 6400 {40:160,}
traffic_breakdown_memtocore[GLOBAL_ACC_R] = 49753760 {40:1243844,}
traffic_breakdown_memtocore[GLOBAL_ACC_W] = 12582912 {8:1572864,}
traffic_breakdown_memtocore[INST_ACC_R] = 76800 {40:1920,}
maxmflatency = 1647 
max_icnt2mem_latency = 617 
maxmrqlatency = 1094 
max_icnt2sh_latency = 374 
averagemflatency = 264 
avg_icnt2mem_latency = 41 
avg_mrq_latency = 52 
avg_icnt2sh_latency = 17 
mrq_lat_table:118520 	271814 	140694 	117904 	104382 	227603 	254715 	170305 	20877 	766 	5 	0 	0 	0 	0 	0 	0 	0 	0 	0 	0 	0 	0 	0 	0 	0 	0 	0 	0 	0 	0 	0 	
dq_lat_table:0 	0 	0 	0 	0 	0 	0 	0 	0 	0 	0 	0 	0 	0 	0 	0 	0 	0 	0 	0 	0 	0 	0 	0 	0 	0 	0 	0 	0 	0 	0 	0 	
mf_lat_table:0 	0 	0 	0 	0 	0 	0 	1511301 	1230836 	72987 	1744 	0 	0 	0 	0 	0 	0 	0 	0 	0 	0 	0 	0 	0 	0 	0 	0 	0 	0 	0 	0 	0 	
icnt2mem_lat_table:0 	0 	128 	284934 	1206232 	938898 	301101 	62066 	23520 	389 	0 	0 	0 	0 	0 	0 	0 	0 	0 	0 	0 	0 	0 	0 	
icnt2sh_lat_table:0 	0 	965542 	992773 	477313 	289858 	85175 	6007 	200 	0 	0 	0 	0 	0 	0 	0 	0 	0 	0 	0 	0 	0 	0 	0 	
mf_lat_pw_table:0 	0 	0 	0 	0 	0 	0 	234 	207 	3 	1 	0 	0 	0 	0 	0 	0 	0 	0 	0 	0 	0 	0 	0 	0 	0 	0 	0 	0 	0 	0 	0 	
maximum concurrent accesses to same row:
dram[0]:        64        64        64        64        64        64        64        64        64        64        64        64        64        64        64        64 
dram[1]:        64        64        64        64        64        64        64        64        64        64        64        64        64        64        64        64 
dram[2]:        64        64        64        64        64        64        64        64        64        64        64        64        64        64        64        64 
dram[3]:        64        64        64        64        64        64        64        64        64        64        64        64        64        64        64        64 
dram[4]:        64        64        64        64        64        64        64        64        64        64        64        64        64        64        64        64 
dram[5]:        64        64        64        64        64        64        64        64        64        64        64        64        64        64        64        64 
dram[6]:        64        64        64        64        64        64        64        64        64        64        64        64        64        64        64        64 
dram[7]:        64        64        64        64        64        64        64        64        64        64        64        64        64        64        64        64 
dram[8]:        64        64        64        64        64        64        64        64        64        64        64        64        64        64        64        64 
dram[9]:        64        64        64        64        64        64        64        64        64        64        64        64        64        64        64        64 
dram[10]:        64        64        64        64        64        64        64        64        64        64        64        64        64        64        64        64 
dram[11]:        64        64        64        64        64        64        64        64        64        64        64        64        64        64        64        64 
dram[12]:        64        64        64        64        64        64        64        64        64        64        64        64        64        64        64        64 
dram[13]:        64        64        64        64        64        64        64        64        64        64        64        64        64        64        64        64 
dram[14]:        64        64        64        64        64        64        64        64        64        64        64        64        64        64        64        64 
dram[15]:        64        64        64        64        64        64        64        64        64        64        64        64        64        64        64        64 
dram[16]:        64        64        64        64        64        64        64        64        64        64        64        64        64        64        64        64 
dram[17]:        64        64        64        64        64        64        64        64        64        64        64        64        64        64        64        64 
dram[18]:        64        64        64        64        64        64        64        64        64        64        64        64        64        64        64        64 
dram[19]:        64        64        64        64        64        64        64        64        64        64        64        64        64        64        64        64 
dram[20]:        64        64        64        64        64        64        64        64        64        64        64        64        64        64        64        64 
dram[21]:        64        64        64        64        64        64        64        64        64        64        64        64        64        64        64        64 
dram[22]:        64        64        64        64        64        64        64        64        64        64        64        64        64        64        64        64 
dram[23]:        64        64        64        64        64        64        64        64        64        64        64        64        64        64        64        64 
dram[24]:        64        64        64        64        64        64        64        64        64        64        64        64        64        64        64        64 
dram[25]:        64        64        64        64        64        64        64        64        64        64        64        64        64        64        64        64 
dram[26]:        64        64        64        64        64        64        64        64        64        64        64        64        64        64        64        64 
dram[27]:        64        64        64        64        64        64        64        64        64        64        64        64        64        64        64        64 
dram[28]:        64        64        64        64        64        64        64        64        64        64        64        64        64        64        64        64 
dram[29]:        64        64        64        64        64        64        64        64        64        64        64        64        64        64        64        64 
dram[30]:        64        64        64        64        64        64        64        64        64        64        64        64        64        64        64        64 
dram[31]:        64        64        64        64        64        64        64        64        64        64        64        64        64        64        64        64 
maximum service time to same row:
dram[0]:      6539      6824      7870      7893      8414      8288      9762      9776      9999     10088      9667      9769      8207      8103      8467      8414 
dram[1]:      6696      6806      7862      7933      8368      8500      9542      9912      9850     10188      9497      9920      8220      8189      8510      8434 
dram[2]:      6647      6831      7849      8219      8355      8422      9784      9793     10153     10077      9557      9903      8090      8098      8568      8431 
dram[3]:      6645      6837      7766      8070      8672      8453      9839      9680     10103     10058      9548      9845      8089      8074      8592      8426 
dram[4]:      6652      6793      7876      8102      8684      8426      9850      9703     10084     10057      9644      9880      8104      8092      8703      8404 
dram[5]:      6708      6759      7869      8230      8794      8489      9811      9691     10019     10116      9726      9815      8113      8180      8465      8434 
dram[6]:      6707      6823      7838      8285      8807      8194      9777      9886     10084      9926      9760      9745      8119      8184      8460      8438 
dram[7]:      6698      6918      7930      8138      8778      8189      9754      9882     10007      9959      9716      9746      8126      8196      8482      8412 
dram[8]:      6699      6913      7938      8282      8466      8199      9892      9766      9916     10046      9763      9684      8131      8101      8496      8412 
dram[9]:      6678      6955      7994      8210      8446      8294      9779      9800     10033     10084      9666      9677      8142      8099      8515      8409 
dram[10]:      6625      7013      8006      8259      8491      8148      9718      9964     10052     10098      9612      9684      8150      8114      8573      8398 
dram[11]:      6623      7021      7973      8379      8597      8123      9759      9980      9971     10089      9776      9702      8159      8118      8597      8270 
dram[12]:      6638      6769      7976      8423      8526      8136      9712      9947      9988     10029      9737      9768      8210      8125      8582      8272 
dram[13]:      6824      6770      8117      8374      8489      8182      9750     10014      9993     10089      9623      9818      8222      8024      8534      8282 
dram[14]:      6809      6771      8066      8346      8471      8173      9658     10046     10043     10001      9603      9862      8164      8086      8532      8282 
dram[15]:      6801      6834      8091      8530      8350      8085      9674     10003     10100      9947      9560      9860      8046      8040      8600      8292 
dram[16]:      6790      6840      7940      8508      8506      8081      9754      9896     10112     10018      9601      9724      8040      8037      8612      8366 
dram[17]:      6779      6888      7876      8484      8401      8372      9737      9866     10027     10051      9574      9817      8044      8048      8407      8345 
dram[18]:      6773      6871      7826      8465      8447      8350      9615      9884     10036     10113      9624      9844      8060      8166      8407      8357 
dram[19]:      6742      6907      7827      8434      8413      8375      9612     10108     10020     10124      9680      9930      8062      8152      8376      8428 
dram[20]:      6734      6903      7895      8462      8444      8499      9609     10072      9986     10140      9658      9612      8143      8157      8374      8496 
dram[21]:      6732      6876      8280      8380      8338      8521      9700      9940     10014     10093      9656      9668      8160      8137      8381      8534 
dram[22]:      6770      6877      8270      8365      8317      8790      9718      9916     10020     10015      9668      9632      8172      8142      8398      8462 
dram[23]:      6717      6960      8398      8223      8312      8720      9769      9917     10047      9981      9711      9676      8142      8152      8416      8474 
dram[24]:      6698      7003      8403      8387      8312      8670      9800      9934     10146     10021      9670      9650      7982      8162      8419      8501 
dram[25]:      6713      6965      8194      8310      8210      8676      9811      9944     10146     10044      9713      9611      7988      8172      8424      8517 
dram[26]:      6712      6965      8174      8391      8110      8720      9817      9940     10167     10035      9752      9755      7998      8202      8489      8321 
dram[27]:      6735      6951      7841      8434      8109      8487      9694      9977     10096     10108      9710      9819      7994      8210      8575      8316 
dram[28]:      6727      6957      8011      8446      8205      8384      9712      9908     10065     10096      9817      9886      8012      8200      8546      8328 
dram[29]:      6730      6895      8036      8243      8239      8396      9797      9846     10022     10068      9813      9853      8261      8203      8558      8323 
dram[30]:      6842      6881      8036      8196      8273      8400      9832      9795     10077     10176      9836      9786      8239      8195      8371      8345 
dram[31]:      6842      6883      7950      8395      8326      8284      9782      9822     10020     10157      9785      9773      8227      8198      8378      8368 
average row accesses per activate:
dram[0]: 27.801981 26.923077 25.688074 25.925926 25.000000 25.925926 25.454546 24.778761 25.099098 23.794872 25.777779 25.777779 25.887850 24.936937 27.680000 25.412844 
dram[1]: 26.704762 27.184465 28.282827 25.925926 24.778761 25.925926 24.561403 23.333334 25.559633 23.200001 25.541285 26.264151 27.979797 25.869160 27.680000 24.954954 
dram[2]: 27.252428 25.925926 26.666666 25.454546 25.925926 25.000000 23.931623 24.137932 24.226088 23.200001 26.264151 24.421053 26.883495 23.658119 27.959597 25.887850 
dram[3]: 26.415094 26.168224 26.666666 26.415094 23.529411 26.168224 23.728813 24.561403 25.541285 23.593220 25.777779 26.514286 27.680000 23.457626 28.536083 25.887850 
dram[4]: 26.168224 26.666666 26.666666 25.925926 24.137932 26.168224 24.561403 23.931623 24.637169 23.200001 25.777779 26.769230 26.873787 24.936937 27.959597 27.425743 
dram[5]: 26.415094 25.688074 26.415094 26.666666 24.561403 24.561403 25.000000 22.950819 24.637169 22.819672 25.309092 26.018692 26.361904 25.629629 29.763441 25.887850 
dram[6]: 26.415094 27.450981 26.666666 25.454546 24.561403 24.347826 25.225225 25.925926 24.208696 24.208696 24.421053 26.018692 26.873787 25.394495 27.405941 26.634615 
dram[7]: 26.415094 27.184465 26.666666 25.688074 23.931623 25.225225 24.137932 25.454546 23.394958 22.819672 24.637169 26.514286 25.163637 26.615385 27.137255 24.954954 
dram[8]: 26.666666 27.450981 27.184465 26.168224 25.688074 25.225225 24.137932 24.561403 23.593220 24.421053 26.769230 26.018692 26.113207 26.113207 27.137255 27.425743 
dram[9]: 26.923077 29.473684 26.666666 26.415094 25.688074 25.454546 25.000000 25.925926 23.008265 24.000000 24.857143 26.264151 25.163637 25.629629 26.615385 27.425743 
dram[10]: 26.923077 30.434782 26.168224 26.415094 25.688074 25.688074 25.225225 25.925926 23.008265 24.000000 26.264151 25.309092 26.361904 26.873787 26.615385 27.979797 
dram[11]: 27.184465 27.722773 25.925926 27.184465 25.925926 24.778761 24.561403 26.666666 24.000000 25.777779 25.309092 25.777779 26.873787 26.361904 25.869160 27.156862 
dram[12]: 25.454546 28.000000 25.225225 27.450981 24.778761 27.184465 24.137932 25.225225 23.200001 23.200001 26.264151 24.421053 27.137255 28.536083 24.714285 28.556702 
dram[13]: 27.184465 28.282827 25.225225 26.415094 25.225225 25.925926 22.950819 26.168224 24.000000 25.081081 25.309092 24.857143 27.680000 27.959597 24.936937 27.425743 
dram[14]: 25.000000 26.415094 25.454546 26.168224 24.347826 24.561403 23.529411 24.561403 22.451612 25.777779 24.000000 26.264151 26.873787 27.405941 24.723215 29.157894 
dram[15]: 24.778761 28.571428 25.000000 28.571428 24.137932 24.561403 23.140495 26.415094 23.200001 25.777779 23.794872 24.857143 26.361904 27.680000 25.648148 27.425743 
dram[16]: 25.000000 27.722773 24.347826 29.166666 23.728813 25.454546 25.225225 26.666666 24.000000 26.769230 24.208696 25.309092 24.714285 29.446808 24.954954 27.425743 
dram[17]: 26.923077 29.166666 25.000000 28.865980 23.728813 25.688074 24.778761 26.666666 24.000000 23.593220 22.819672 25.081081 26.361904 26.615385 25.648148 27.979797 
dram[18]: 26.923077 28.282827 25.454546 29.787233 23.333334 24.347826 25.225225 27.722773 24.421053 26.264151 22.634146 26.514286 25.629629 27.959597 24.513275 29.157894 
dram[19]: 25.225225 27.722773 25.000000 27.184465 24.561403 24.778761 23.333334 28.000000 23.593220 27.564356 21.921259 25.541285 26.873787 27.680000 25.887850 28.265306 
dram[20]: 24.347826 26.168224 24.347826 27.450981 22.950819 25.454546 22.047245 27.184465 24.000000 26.018692 22.095238 29.305264 25.869160 27.680000 26.380953 28.265306 
dram[21]: 26.168224 26.923077 25.225225 26.666666 25.225225 25.688074 22.047245 26.666666 24.857143 26.264151 23.794872 27.840000 25.163637 27.680000 24.298246 28.265306 
dram[22]: 26.168224 25.925926 26.168224 26.923077 25.454546 24.137932 23.931623 26.168224 22.819672 25.777779 23.394958 27.029127 26.361904 27.405941 24.732143 27.700001 
dram[23]: 26.415094 25.225225 25.688074 27.450981 24.778761 23.529411 22.764227 25.925926 23.008265 23.394958 24.208696 28.701031 25.394495 28.536083 25.412844 27.425743 
dram[24]: 26.168224 28.282827 25.000000 27.450981 24.347826 25.225225 23.140495 26.415094 23.593220 24.000000 24.421053 27.294117 24.936937 27.680000 24.732143 25.648148 
dram[25]: 27.450981 26.923077 25.454546 27.184465 25.000000 26.168224 24.561403 27.184465 23.394958 24.637169 23.794872 25.081081 26.113207 26.615385 24.732143 27.425743 
dram[26]: 26.923077 27.722773 26.168224 27.184465 23.529411 25.225225 23.529411 24.778761 23.008265 24.000000 25.081081 27.840000 25.394495 28.536083 23.277311 26.380953 
dram[27]: 26.923077 26.415094 27.184465 25.925926 23.728813 23.728813 24.778761 24.561403 23.200001 23.794872 24.208696 27.564356 25.163637 26.113207 25.181818 27.156862 
dram[28]: 26.168224 26.923077 25.225225 28.000000 25.925926 23.931623 23.333334 24.561403 23.593220 24.000000 24.421053 27.029127 25.629629 29.136843 25.648148 27.425743 
dram[29]: 26.923077 26.666666 25.225225 28.282827 24.778761 25.225225 22.950819 23.333334 22.819672 24.421053 24.637169 26.769230 25.869160 29.136843 25.181818 28.854166 
dram[30]: 25.925926 27.450981 25.454546 27.450981 25.454546 25.225225 23.333334 25.454546 22.451612 24.000000 24.000000 26.018692 24.936937 24.936937 25.887850 26.634615 
dram[31]: 27.184465 26.666666 26.923077 26.666666 24.347826 25.454546 23.931623 22.222221 21.921259 23.394958 25.081081 26.018692 25.394495 24.714285 25.648148 26.634615 
average row locality = 1427585/55783 = 25.591757
number of total memory accesses made:
dram[0]:         0         0         0         0         0         0         0         0         0         0         0         0         0         0         0         0 
dram[1]:         0         0         0         0         0         0         0         0         0         0         0         0         0         0         0         0 
dram[2]:         0         0         0         0         0         0         0         0         0         0         0         0         0         0         0         0 
dram[3]:         0         0         0         0         0         0         0         0         0         0         0         0         0         0         0         0 
dram[4]:         0         0         0         0         0         0         0         0         0         0         0         0         0         0         0         0 
dram[5]:         0         0         0         0         0         0         0         0         0         0         0         0         0         0         0         0 
dram[6]:         0         0         0         0         0         0         0         0         0         0         0         0         0         0         0         0 
dram[7]:         0         0         0         0         0         0         0         0         0         0         0         0         0         0         0         0 
dram[8]:         0         0         0         0         0         0         0         0         0         0         0         0         0         0         0         0 
dram[9]:         0         0         0         0         0         0         0         0         0         0         0         0         0         0         0         0 
dram[10]:         0         0         0         0         0         0         0         0         0         0         0         0         0         0         0         0 
dram[11]:         0         0         0         0         0         0         0         0         0         0         0         0         0         0         0         0 
dram[12]:         0         0         0         0         0         0         0         0         0         0         0         0         0         0         0         0 
dram[13]:         0         0         0         0         0         0         0         0         0         0         0         0         0         0         0         0 
dram[14]:         0         0         0         0         0         0         0         0         0         0         0         0         0         0         0         0 
dram[15]:         0         0         0         0         0         0         0         0         0         0         0         0         0         0         0         0 
dram[16]:         0         0         0         0         0         0         0         0         0         0         0         0         0         0         0         0 
dram[17]:         0         0         0         0         0         0         0         0         0         0         0         0         0         0         0         0 
dram[18]:         0         0         0         0         0         0         0         0         0         0         0         0         0         0         0         0 
dram[19]:         0         0         0         0         0         0         0         0         0         0         0         0         0         0         0         0 
dram[20]:         0         0         0         0         0         0         0         0         0         0         0         0         0         0         0         0 
dram[21]:         0         0         0         0         0         0         0         0         0         0         0         0         0         0         0         0 
dram[22]:         0         0         0         0         0         0         0         0         0         0         0         0         0         0         0         0 
dram[23]:         0         0         0         0         0         0         0         0         0         0         0         0         0         0         0         0 
dram[24]:         0         0         0         0         0         0         0         0         0         0         0         0         0         0         0         0 
dram[25]:         0         0         0         0         0         0         0         0         0         0         0         0         0         0         0         0 
dram[26]:         0         0         0         0         0         0         0         0         0         0         0         0         0         0         0         0 
dram[27]:         0         0         0         0         0         0         0         0         0         0         0         0         0         0         0         0 
dram[28]:         0         0         0         0         0         0         0         0         0         0         0         0         0         0         0         0 
dram[29]:         0         0         0         0         0         0         0         0         0         0         0         0         0         0         0         0 
dram[30]:         0         0         0         0         0         0         0         0         0         0         0         0         0         0         0         0 
dram[31]:         0         0         0         0         0         0         0         0         0         0         0         0         0         0         0         0 
total accesses: 0
min_bank_accesses = 0!
min_chip_accesses = 0!
number of total read accesses:
dram[0]:      2315      2304      2304      2304      2304      2304      2304      2304      2304      2304      2304      2304      2304      2304      2304      2304 
dram[1]:      2312      2304      2304      2304      2304      2304      2304      2304      2304      2304      2304      2304      2304      2304      2304      2304 
dram[2]:      2313      2304      2304      2304      2304      2304      2304      2304      2304      2304      2304      2304      2304      2304      2304      2304 
dram[3]:      2304      2304      2304      2304      2304      2304      2304      2304      2304      2304      2304      2304      2304      2304      2304      2304 
dram[4]:      2304      2304      2304      2304      2304      2304      2304      2304      2304      2304      2304      2304      2304      2304      2304      2304 
dram[5]:      2304      2304      2304      2304      2304      2304      2304      2304      2304      2304      2304      2304      2304      2304      2304      2304 
dram[6]:      2304      2304      2304      2304      2304      2304      2304      2304      2304      2304      2304      2304      2304      2304      2304      2304 
dram[7]:      2304      2304      2304      2304      2304      2304      2304      2304      2304      2304      2304      2304      2304      2304      2304      2304 
dram[8]:      2304      2304      2304      2304      2304      2304      2304      2304      2304      2304      2304      2304      2304      2304      2304      2304 
dram[9]:      2304      2304      2304      2304      2304      2304      2304      2304      2304      2304      2304      2304      2304      2304      2304      2304 
dram[10]:      2304      2304      2304      2304      2304      2304      2304      2304      2304      2304      2304      2304      2304      2304      2304      2304 
dram[11]:      2304      2304      2304      2304      2304      2304      2304      2304      2304      2304      2304      2304      2304      2304      2304      2304 
dram[12]:      2304      2304      2304      2304      2304      2304      2304      2304      2304      2304      2304      2304      2304      2304      2304      2304 
dram[13]:      2304      2304      2304      2304      2304      2304      2304      2304      2304      2304      2304      2304      2304      2304      2304      2304 
dram[14]:      2304      2304      2304      2304      2304      2304      2304      2304      2304      2304      2304      2304      2304      2304      2304      2304 
dram[15]:      2304      2304      2304      2304      2304      2304      2304      2304      2304      2304      2304      2304      2304      2304      2304      2304 
dram[16]:      2304      2304      2304      2304      2304      2304      2304      2304      2304      2304      2304      2304      2304      2304      2304      2304 
dram[17]:      2304      2304      2304      2304      2304      2304      2304      2304      2304      2304      2304      2304      2304      2304      2304      2304 
dram[18]:      2304      2304      2304      2304      2304      2304      2304      2304      2304      2304      2304      2304      2304      2304      2304      2304 
dram[19]:      2304      2304      2304      2304      2304      2304      2304      2304      2304      2304      2304      2304      2304      2304      2304      2304 
dram[20]:      2304      2304      2304      2304      2304      2304      2304      2304      2304      2304      2304      2304      2304      2304      2304      2304 
dram[21]:      2304      2304      2304      2304      2304      2304      2304      2304      2304      2304      2304      2304      2304      2304      2304      2304 
dram[22]:      2304      2304      2304      2304      2304      2304      2304      2304      2304      2304      2304      2304      2304      2304      2304      2304 
dram[23]:      2304      2304      2304      2304      2304      2304      2304      2304      2304      2304      2304      2304      2304      2304      2304      2304 
dram[24]:      2304      2304      2304      2304      2304      2304      2304      2304      2304      2304      2304      2304      2304      2304      2304      2304 
dram[25]:      2304      2304      2304      2304      2304      2304      2304      2304      2304      2304      2304      2304      2304      2304      2304      2304 
dram[26]:      2304      2304      2304      2304      2304      2304      2304      2304      2304      2304      2304      2304      2304      2304      2304      2304 
dram[27]:      2304      2304      2304      2304      2304      2304      2304      2304      2304      2304      2304      2304      2304      2304      2304      2304 
dram[28]:      2304      2304      2304      2304      2304      2304      2304      2304      2304      2304      2304      2304      2304      2304      2304      2304 
dram[29]:      2304      2304      2304      2304      2304      2304      2304      2304      2304      2304      2304      2304      2304      2304      2304      2304 
dram[30]:      2304      2304      2304      2304      2304      2304      2304      2304      2304      2304      2304      2304      2304      2304      2304      2304 
dram[31]:      2304      2304      2304      2304      2304      2304      2304      2304      2304      2304      2304      2304      2304      2304      2304      2304 
total dram reads = 1179676
bank skew: 2315/2304 = 1.00
chip skew: 36875/36864 = 1.00
number of total write accesses:
dram[0]:       493       496       496       496       496       496       496       496       482       480       480       480       466       464       464       466 
dram[1]:       492       496       496       496       496       496       496       496       482       480       480       480       466       464       464       466 
dram[2]:       494       496       496       496       496       496       496       496       482       480       480       480       465       464       464       466 
dram[3]:       496       496       496       496       496       496       496       496       480       480       480       480       464       464       464       466 
dram[4]:       496       496       496       496       496       496       496       496       480       480       480       480       464       464       464       466 
dram[5]:       496       496       496       496       496       496       496       496       480       480       480       480       464       464       464       466 
dram[6]:       496       496       496       496       496       496       496       496       480       480       480       480       464       464       464       466 
dram[7]:       496       496       496       496       496       496       496       496       480       480       480       480       464       464       464       466 
dram[8]:       496       496       496       496       496       496       496       496       480       480       480       480       464       464       464       466 
dram[9]:       496       496       496       496       496       496       496       496       480       480       480       480       464       464       464       466 
dram[10]:       496       496       496       496       496       496       496       496       480       480       480       480       464       464       464       466 
dram[11]:       496       496       496       496       496       496       496       496       480       480       480       480       464       464       464       466 
dram[12]:       496       496       496       496       496       496       496       496       480       480       480       480       464       464       464       466 
dram[13]:       496       496       496       496       496       496       496       496       480       480       480       480       464       464       464       466 
dram[14]:       496       496       496       496       496       496       496       496       480       480       480       480       464       464       465       466 
dram[15]:       496       496       496       496       496       496       496       496       480       480       480       480       464       464       466       466 
dram[16]:       496       496       496       496       496       496       496       496       480       480       480       480       464       464       466       466 
dram[17]:       496       496       496       496       496       496       496       496       480       480       480       480       464       464       466       466 
dram[18]:       496       496       496       496       496       496       496       496       480       480       480       480       464       464       466       466 
dram[19]:       496       496       496       496       496       496       496       496       480       480       480       480       464       464       466       466 
dram[20]:       496       496       496       496       496       496       496       496       480       480       480       480       464       464       466       466 
dram[21]:       496       496       496       496       496       496       496       496       480       480       480       480       464       464       466       466 
dram[22]:       496       496       496       496       496       496       496       496       480       480       480       480       464       464       466       466 
dram[23]:       496       496       496       496       496       496       496       496       480       480       480       480       464       464       466       466 
dram[24]:       496       496       496       496       496       496       496       496       480       480       480       480       464       464       466       466 
dram[25]:       496       496       496       496       496       496       496       496       480       480       480       480       464       464       466       466 
[...]
RCDWRc_limit = 13526 
WTRc_limit = 44380 
RTWc_limit = 139197 
CCDLc_limit = 68884 
rwq = 0 
CCDLc_limit_alone = 42573 
WTRc_limit_alone = 36160 
RTWc_limit_alone = 121106 

Commands details: 
total_CMD = 306678 
n_nop = 97770 
Read = 108544 
Write = 0 
L2_Alloc = 0 
L2_WB = 94628 
n_act = 10551 
n_pre = 10535 
n_ref = 0 
n_req = 132201 
total_req = 203172 

Dual Bus Interface Util: 
issued_total_row = 21086 
issued_total_col = 203172 
Row_Bus_Util =  0.068756 
CoL_Bus_Util = 0.662493 
Either_Row_CoL_Bus_Util = 0.681197 
Issued_on_Two_Bus_Simul_Util = 0.050052 
issued_two_Eff = 0.073477 
queue_avg = 38.028454 


dram_util_bins: 0 0 0 0 0 0 0 0 0 0
dram_eff_bins: 0 0 0 0 0 0 0 0 0 0
mrqq: max=64 avg=38.0285
Memory Partition 29: 
Cache L2_bank_058:
MSHR contents

Cache L2_bank_059:
MSHR contents

In Dram Latency Queue (total = 0): 
DRAM[29]: 16 bks, busW=16 BL=2 CL=12, tRRD=3 tCCD=1, tRCD=12 tRAS=28 tRP=12 tRC=40
n_cmd=306678 n_nop=98036 n_act=10177 n_pre=10161 n_ref_event=0 n_req=132204 n_rd=108544 n_rd_L2_A=0 n_write=0 n_wr_bk=94640 bw_util=0.6625
n_activity=284352 dram_eff=0.7146
bk0: 6784a 232972i bk1: 6784a 232847i bk2: 6784a 229512i bk3: 6784a 231404i bk4: 6784a 230344i bk5: 6784a 231295i bk6: 6784a 231545i bk7: 6784a 232861i bk8: 6784a 231233i bk9: 6784a 233194i bk10: 6784a 229932i bk11: 6784a 233277i bk12: 6784a 233741i bk13: 6784a 235765i bk14: 6784a 232995i bk15: 6784a 234964i 

------------------------------------------------------------------------

Row_Buffer_Locality = 0.923020
Row_Buffer_Locality_read = 0.956036
Row_Buffer_Locality_write = 0.771555
Bank_Level_Parallism = 4.731649
Bank_Level_Parallism_Col = 4.042175
Bank_Level_Parallism_Ready = 1.822427
write_to_read_ratio_blp_rw_average = 0.562169
GrpLevelPara = 2.832438 

BW Util details:
bwutil = 0.662532 
total_CMD = 306678 
util_bw = 203184 
Wasted_Col = 73055 
Wasted_Row = 2981 
Idle = 27458 

BW Util Bottlenecks: 
RCDc_limit = 16241 
RCDWRc_limit = 12765 
WTRc_limit = 42289 
RTWc_limit = 138713 
CCDLc_limit = 68994 
rwq = 0 
CCDLc_limit_alone = 42644 
WTRc_limit_alone = 34266 
RTWc_limit_alone = 120386 

Commands details: 
total_CMD = 306678 
n_nop = 98036 
Read = 108544 
Write = 0 
L2_Alloc = 0 
L2_WB = 94640 
n_act = 10177 
n_pre = 10161 
n_ref = 0 
n_req = 132204 
total_req = 203184 

Dual Bus Interface Util: 
issued_total_row = 20338 
issued_total_col = 203184 
Row_Bus_Util =  0.066317 
CoL_Bus_Util = 0.662532 
Either_Row_CoL_Bus_Util = 0.680329 
Issued_on_Two_Bus_Simul_Util = 0.048520 
issued_two_Eff = 0.071318 
queue_avg = 37.059757 


dram_util_bins: 0 0 0 0 0 0 0 0 0 0
dram_eff_bins: 0 0 0 0 0 0 0 0 0 0
mrqq: max=64 avg=37.0598
Memory Partition 30: 
Cache L2_bank_060:
MSHR contents

Cache L2_bank_061:
MSHR contents

In Dram Latency Queue (total = 0): 
DRAM[30]: 16 bks, busW=16 BL=2 CL=12, tRRD=3 tCCD=1, tRCD=12 tRAS=28 tRP=12 tRC=40
n_cmd=306678 n_nop=98205 n_act=9647 n_pre=9631 n_ref_event=0 n_req=132204 n_rd=108544 n_rd_L2_A=0 n_write=0 n_wr_bk=94640 bw_util=0.6625
n_activity=283869 dram_eff=0.7158
bk0: 6784a 234493i bk1: 6784a 232781i bk2: 6784a 232456i bk3: 6784a 232789i bk4: 6784a 230325i bk5: 6784a 232149i bk6: 6784a 232908i bk7: 6784a 234796i bk8: 6784a 231535i bk9: 6784a 234272i bk10: 6784a 232565i bk11: 6784a 235022i bk12: 6784a 235227i bk13: 6784a 236045i bk14: 6784a 234750i bk15: 6784a 235434i 

------------------------------------------------------------------------

Row_Buffer_Locality = 0.927029
Row_Buffer_Locality_read = 0.954673
Row_Buffer_Locality_write = 0.800211
Bank_Level_Parallism = 4.672814
Bank_Level_Parallism_Col = 4.035378
Bank_Level_Parallism_Ready = 1.833840
write_to_read_ratio_blp_rw_average = 0.550691
GrpLevelPara = 2.816836 

BW Util details:
bwutil = 0.662532 
total_CMD = 306678 
util_bw = 203184 
Wasted_Col = 72522 
Wasted_Row = 2821 
Idle = 28151 

BW Util Bottlenecks: 
RCDc_limit = 17016 
RCDWRc_limit = 11627 
WTRc_limit = 46365 
RTWc_limit = 132939 
CCDLc_limit = 69324 
rwq = 0 
CCDLc_limit_alone = 42470 
WTRc_limit_alone = 37721 
RTWc_limit_alone = 114729 

Commands details: 
total_CMD = 306678 
n_nop = 98205 
Read = 108544 
Write = 0 
L2_Alloc = 0 
L2_WB = 94640 
n_act = 9647 
n_pre = 9631 
n_ref = 0 
n_req = 132204 
total_req = 203184 

Dual Bus Interface Util: 
issued_total_row = 19278 
issued_total_col = 203184 
Row_Bus_Util =  0.062861 
CoL_Bus_Util = 0.662532 
Either_Row_CoL_Bus_Util = 0.679778 
Issued_on_Two_Bus_Simul_Util = 0.045615 
issued_two_Eff = 0.067102 
queue_avg = 37.271923 


dram_util_bins: 0 0 0 0 0 0 0 0 0 0
dram_eff_bins: 0 0 0 0 0 0 0 0 0 0
mrqq: max=64 avg=37.2719
Memory Partition 31: 
Cache L2_bank_062:
MSHR contents

Cache L2_bank_063:
MSHR contents

In Dram Latency Queue (total = 0): 
DRAM[31]: 16 bks, busW=16 BL=2 CL=12, tRRD=3 tCCD=1, tRCD=12 tRAS=28 tRP=12 tRC=40
n_cmd=306678 n_nop=97636 n_act=11185 n_pre=11169 n_ref_event=0 n_req=132204 n_rd=108544 n_rd_L2_A=0 n_write=0 n_wr_bk=94640 bw_util=0.6625
n_activity=284029 dram_eff=0.7154
bk0: 6784a 229315i bk1: 6784a 229771i bk2: 6784a 227054i bk3: 6784a 229774i bk4: 6784a 225591i bk5: 6784a 227476i bk6: 6784a 229135i bk7: 6784a 229021i bk8: 6784a 228313i bk9: 6784a 229889i bk10: 6784a 226747i bk11: 6784a 232047i bk12: 6784a 230465i bk13: 6784a 232144i bk14: 6784a 227344i bk15: 6784a 231524i 

------------------------------------------------------------------------

Row_Buffer_Locality = 0.915396
Row_Buffer_Locality_read = 0.954092
Row_Buffer_Locality_write = 0.737870
Bank_Level_Parallism = 4.927924
Bank_Level_Parallism_Col = 4.146737
Bank_Level_Parallism_Ready = 1.833845
write_to_read_ratio_blp_rw_average = 0.560686
GrpLevelPara = 2.866703 

BW Util details:
bwutil = 0.662532 
total_CMD = 306678 
util_bw = 203184 
Wasted_Col = 72847 
Wasted_Row = 2675 
Idle = 27972 

BW Util Bottlenecks: 
RCDc_limit = 17078 
RCDWRc_limit = 13919 
WTRc_limit = 46332 
RTWc_limit = 142029 
CCDLc_limit = 69304 
rwq = 0 
CCDLc_limit_alone = 42402 
WTRc_limit_alone = 37517 
RTWc_limit_alone = 123942 

Commands details: 
total_CMD = 306678 
n_nop = 97636 
Read = 108544 
Write = 0 
L2_Alloc = 0 
L2_WB = 94640 
n_act = 11185 
n_pre = 11169 
n_ref = 0 
n_req = 132204 
total_req = 203184 

Dual Bus Interface Util: 
issued_total_row = 22354 
issued_total_col = 203184 
Row_Bus_Util =  0.072891 
CoL_Bus_Util = 0.662532 
Either_Row_CoL_Bus_Util = 0.681634 
Issued_on_Two_Bus_Simul_Util = 0.053789 
issued_two_Eff = 0.078912 
queue_avg = 37.880375 


dram_util_bins: 0 0 0 0 0 0 0 0 0 0
dram_eff_bins: 0 0 0 0 0 0 0 0 0 0
mrqq: max=64 avg=37.8804

========= L2 cache stats =========
L2_cache_bank[0]: Access = 125102, Miss = 58380, Miss_rate = 0.467, Pending_hits = 2356, Reservation_fails = 459
L2_cache_bank[1]: Access = 124267, Miss = 58368, Miss_rate = 0.470, Pending_hits = 2305, Reservation_fails = 0
L2_cache_bank[2]: Access = 125150, Miss = 58376, Miss_rate = 0.466, Pending_hits = 2192, Reservation_fails = 469
L2_cache_bank[3]: Access = 124698, Miss = 58368, Miss_rate = 0.468, Pending_hits = 2175, Reservation_fails = 0
L2_cache_bank[4]: Access = 124437, Miss = 58380, Miss_rate = 0.469, Pending_hits = 2307, Reservation_fails = 251
L2_cache_bank[5]: Access = 123735, Miss = 58368, Miss_rate = 0.472, Pending_hits = 2323, Reservation_fails = 0
L2_cache_bank[6]: Access = 126209, Miss = 58379, Miss_rate = 0.463, Pending_hits = 2164, Reservation_fails = 676
L2_cache_bank[7]: Access = 125281, Miss = 58368, Miss_rate = 0.466, Pending_hits = 2201, Reservation_fails = 0
L2_cache_bank[8]: Access = 124094, Miss = 58379, Miss_rate = 0.470, Pending_hits = 2272, Reservation_fails = 0
L2_cache_bank[9]: Access = 123453, Miss = 58368, Miss_rate = 0.473, Pending_hits = 2278, Reservation_fails = 0
L2_cache_bank[10]: Access = 125088, Miss = 58368, Miss_rate = 0.467, Pending_hits = 2193, Reservation_fails = 0
L2_cache_bank[11]: Access = 124972, Miss = 58368, Miss_rate = 0.467, Pending_hits = 2203, Reservation_fails = 0
L2_cache_bank[12]: Access = 123841, Miss = 58368, Miss_rate = 0.471, Pending_hits = 2245, Reservation_fails = 0
L2_cache_bank[13]: Access = 123972, Miss = 58368, Miss_rate = 0.471, Pending_hits = 2211, Reservation_fails = 0
L2_cache_bank[14]: Access = 124386, Miss = 58368, Miss_rate = 0.469, Pending_hits = 2260, Reservation_fails = 0
L2_cache_bank[15]: Access = 124297, Miss = 58368, Miss_rate = 0.470, Pending_hits = 2255, Reservation_fails = 0
L2_cache_bank[16]: Access = 123889, Miss = 58368, Miss_rate = 0.471, Pending_hits = 2240, Reservation_fails = 0
L2_cache_bank[17]: Access = 124088, Miss = 58368, Miss_rate = 0.470, Pending_hits = 2210, Reservation_fails = 0
L2_cache_bank[18]: Access = 123858, Miss = 58368, Miss_rate = 0.471, Pending_hits = 2244, Reservation_fails = 0
L2_cache_bank[19]: Access = 123759, Miss = 58368, Miss_rate = 0.472, Pending_hits = 2278, Reservation_fails = 0
L2_cache_bank[20]: Access = 124510, Miss = 58368, Miss_rate = 0.469, Pending_hits = 2238, Reservation_fails = 0
L2_cache_bank[21]: Access = 124650, Miss = 58368, Miss_rate = 0.468, Pending_hits = 2210, Reservation_fails = 0
L2_cache_bank[22]: Access = 123802, Miss = 58368, Miss_rate = 0.471, Pending_hits = 2216, Reservation_fails = 0
L2_cache_bank[23]: Access = 123621, Miss = 58368, Miss_rate = 0.472, Pending_hits = 2245, Reservation_fails = 0
L2_cache_bank[24]: Access = 124405, Miss = 58368, Miss_rate = 0.469, Pending_hits = 2185, Reservation_fails = 0
L2_cache_bank[25]: Access = 124625, Miss = 58368, Miss_rate = 0.468, Pending_hits = 2210, Reservation_fails = 0
L2_cache_bank[26]: Access = 123919, Miss = 58368, Miss_rate = 0.471, Pending_hits = 2184, Reservation_fails = 0
L2_cache_bank[27]: Access = 123696, Miss = 58368, Miss_rate = 0.472, Pending_hits = 2178, Reservation_fails = 0
L2_cache_bank[28]: Access = 124299, Miss = 58368, Miss_rate = 0.470, Pending_hits = 2278, Reservation_fails = 0
L2_cache_bank[29]: Access = 124464, Miss = 58368, Miss_rate = 0.469, Pending_hits = 2255, Reservation_fails = 0
L2_cache_bank[30]: Access = 124269, Miss = 58368, Miss_rate = 0.470, Pending_hits = 2241, Reservation_fails = 0
L2_cache_bank[31]: Access = 124197, Miss = 58368, Miss_rate = 0.470, Pending_hits = 2229, Reservation_fails = 0
L2_cache_bank[32]: Access = 124023, Miss = 58368, Miss_rate = 0.471, Pending_hits = 2266, Reservation_fails = 0
L2_cache_bank[33]: Access = 124188, Miss = 58368, Miss_rate = 0.470, Pending_hits = 2224, Reservation_fails = 0
L2_cache_bank[34]: Access = 124270, Miss = 58368, Miss_rate = 0.470, Pending_hits = 2148, Reservation_fails = 0
L2_cache_bank[35]: Access = 124135, Miss = 58368, Miss_rate = 0.470, Pending_hits = 2187, Reservation_fails = 0
L2_cache_bank[36]: Access = 124091, Miss = 58368, Miss_rate = 0.470, Pending_hits = 2290, Reservation_fails = 0
L2_cache_bank[37]: Access = 124111, Miss = 58368, Miss_rate = 0.470, Pending_hits = 2310, Reservation_fails = 0
L2_cache_bank[38]: Access = 124553, Miss = 58368, Miss_rate = 0.469, Pending_hits = 2220, Reservation_fails = 0
L2_cache_bank[39]: Access = 124378, Miss = 58368, Miss_rate = 0.469, Pending_hits = 2220, Reservation_fails = 0
L2_cache_bank[40]: Access = 123808, Miss = 58368, Miss_rate = 0.471, Pending_hits = 2315, Reservation_fails = 0
L2_cache_bank[41]: Access = 123899, Miss = 58368, Miss_rate = 0.471, Pending_hits = 2307, Reservation_fails = 0
L2_cache_bank[42]: Access = 125427, Miss = 58368, Miss_rate = 0.465, Pending_hits = 2058, Reservation_fails = 0
L2_cache_bank[43]: Access = 125288, Miss = 58368, Miss_rate = 0.466, Pending_hits = 2055, Reservation_fails = 0
L2_cache_bank[44]: Access = 123572, Miss = 58368, Miss_rate = 0.472, Pending_hits = 2313, Reservation_fails = 0
L2_cache_bank[45]: Access = 123512, Miss = 58368, Miss_rate = 0.473, Pending_hits = 2330, Reservation_fails = 0
L2_cache_bank[46]: Access = 125500, Miss = 58368, Miss_rate = 0.465, Pending_hits = 2062, Reservation_fails = 0
L2_cache_bank[47]: Access = 125518, Miss = 58368, Miss_rate = 0.465, Pending_hits = 2061, Reservation_fails = 0
L2_cache_bank[48]: Access = 123807, Miss = 58368, Miss_rate = 0.471, Pending_hits = 2341, Reservation_fails = 0
L2_cache_bank[49]: Access = 123758, Miss = 58368, Miss_rate = 0.472, Pending_hits = 2314, Reservation_fails = 0
L2_cache_bank[50]: Access = 124940, Miss = 58368, Miss_rate = 0.467, Pending_hits = 2226, Reservation_fails = 0
L2_cache_bank[51]: Access = 125088, Miss = 58368, Miss_rate = 0.467, Pending_hits = 2212, Reservation_fails = 0
L2_cache_bank[52]: Access = 123589, Miss = 58368, Miss_rate = 0.472, Pending_hits = 2297, Reservation_fails = 0
L2_cache_bank[53]: Access = 123518, Miss = 58368, Miss_rate = 0.473, Pending_hits = 2285, Reservation_fails = 0
L2_cache_bank[54]: Access = 124565, Miss = 58368, Miss_rate = 0.469, Pending_hits = 2238, Reservation_fails = 0
L2_cache_bank[55]: Access = 124816, Miss = 58368, Miss_rate = 0.468, Pending_hits = 2162, Reservation_fails = 0
L2_cache_bank[56]: Access = 124131, Miss = 58368, Miss_rate = 0.470, Pending_hits = 2354, Reservation_fails = 0
L2_cache_bank[57]: Access = 124002, Miss = 58368, Miss_rate = 0.471, Pending_hits = 2336, Reservation_fails = 0
L2_cache_bank[58]: Access = 124338, Miss = 58368, Miss_rate = 0.469, Pending_hits = 2319, Reservation_fails = 0
L2_cache_bank[59]: Access = 124542, Miss = 58368, Miss_rate = 0.469, Pending_hits = 2316, Reservation_fails = 0
L2_cache_bank[60]: Access = 123518, Miss = 58368, Miss_rate = 0.473, Pending_hits = 2238, Reservation_fails = 0
L2_cache_bank[61]: Access = 123397, Miss = 58368, Miss_rate = 0.473, Pending_hits = 2270, Reservation_fails = 0
L2_cache_bank[62]: Access = 124799, Miss = 58368, Miss_rate = 0.468, Pending_hits = 2179, Reservation_fails = 0
L2_cache_bank[63]: Access = 124598, Miss = 58368, Miss_rate = 0.468, Pending_hits = 2200, Reservation_fails = 0
L2_total_cache_accesses = 7956712
L2_total_cache_misses = 3735606
L2_total_cache_miss_rate = 0.4695
L2_total_cache_pending_hits = 143234
L2_total_cache_reservation_fails = 1855
L2_total_cache_breakdown:
	L2_cache_stats_breakdown[GLOBAL_ACC_R][HIT] = 142498
	L2_cache_stats_breakdown[GLOBAL_ACC_R][HIT_RESERVED] = 143124
	L2_cache_stats_breakdown[GLOBAL_ACC_R][MISS] = 868358
	L2_cache_stats_breakdown[GLOBAL_ACC_R][RESERVATION_FAIL] = 162
	L2_cache_stats_breakdown[GLOBAL_ACC_R][SECTOR_MISS] = 2605062
	L2_cache_stats_breakdown[LOCAL_ACC_R][HIT] = 0
	L2_cache_stats_breakdown[LOCAL_ACC_R][HIT_RESERVED] = 0
	L2_cache_stats_breakdown[LOCAL_ACC_R][MISS] = 0
	L2_cache_stats_breakdown[LOCAL_ACC_R][RESERVATION_FAIL] = 0
	L2_cache_stats_breakdown[LOCAL_ACC_R][SECTOR_MISS] = 0
	L2_cache_stats_breakdown[CONST_ACC_R][HIT] = 152
	L2_cache_stats_breakdown[CONST_ACC_R][HIT_RESERVED] = 6
	L2_cache_stats_breakdown[CONST_ACC_R][MISS] = 1
	L2_cache_stats_breakdown[CONST_ACC_R][RESERVATION_FAIL] = 163
	L2_cache_stats_breakdown[CONST_ACC_R][SECTOR_MISS] = 1
	L2_cache_stats_breakdown[TEXTURE_ACC_R][HIT] = 0
	L2_cache_stats_breakdown[TEXTURE_ACC_R][HIT_RESERVED] = 0
	L2_cache_stats_breakdown[TEXTURE_ACC_R][MISS] = 0
	L2_cache_stats_breakdown[TEXTURE_ACC_R][RESERVATION_FAIL] = 0
	L2_cache_stats_breakdown[TEXTURE_ACC_R][SECTOR_MISS] = 0
	L2_cache_stats_breakdown[GLOBAL_ACC_W][HIT] = 3932166
	L2_cache_stats_breakdown[GLOBAL_ACC_W][HIT_RESERVED] = 0
	L2_cache_stats_breakdown[GLOBAL_ACC_W][MISS] = 16384
	L2_cache_stats_breakdown[GLOBAL_ACC_W][RESERVATION_FAIL] = 0
	L2_cache_stats_breakdown[GLOBAL_ACC_W][SECTOR_MISS] = 245760
	L2_cache_stats_breakdown[LOCAL_ACC_W][HIT] = 0
	L2_cache_stats_breakdown[LOCAL_ACC_W][HIT_RESERVED] = 0
	L2_cache_stats_breakdown[LOCAL_ACC_W][MISS] = 0
	L2_cache_stats_breakdown[LOCAL_ACC_W][RESERVATION_FAIL] = 0
	L2_cache_stats_breakdown[LOCAL_ACC_W][SECTOR_MISS] = 0
	L2_cache_stats_breakdown[L1_WRBK_ACC][HIT] = 0
	L2_cache_stats_breakdown[L1_WRBK_ACC][HIT_RESERVED] = 0
	L2_cache_stats_breakdown[L1_WRBK_ACC][MISS] = 0
	L2_cache_stats_breakdown[L1_WRBK_ACC][RESERVATION_FAIL] = 0
	L2_cache_stats_breakdown[L1_WRBK_ACC][SECTOR_MISS] = 0
	L2_cache_stats_breakdown[L2_WRBK_ACC][HIT] = 0
	L2_cache_stats_breakdown[L2_WRBK_ACC][HIT_RESERVED] = 0
	L2_cache_stats_breakdown[L2_WRBK_ACC][MISS] = 0
	L2_cache_stats_breakdown[L2_WRBK_ACC][RESERVATION_FAIL] = 0
	L2_cache_stats_breakdown[L2_WRBK_ACC][SECTOR_MISS] = 0
	L2_cache_stats_breakdown[INST_ACC_R][HIT] = 3056
	L2_cache_stats_breakdown[INST_ACC_R][HIT_RESERVED] = 104
	L2_cache_stats_breakdown[INST_ACC_R][MISS] = 10
	L2_cache_stats_breakdown[INST_ACC_R][RESERVATION_FAIL] = 1530
	L2_cache_stats_breakdown[INST_ACC_R][SECTOR_MISS] = 30
	L2_cache_stats_breakdown[L1_WR_ALLOC_R][HIT] = 0
	L2_cache_stats_breakdown[L1_WR_ALLOC_R][HIT_RESERVED] = 0
	L2_cache_stats_breakdown[L1_WR_ALLOC_R][MISS] = 0
	L2_cache_stats_breakdown[L1_WR_ALLOC_R][RESERVATION_FAIL] = 0
	L2_cache_stats_breakdown[L1_WR_ALLOC_R][SECTOR_MISS] = 0
	L2_cache_stats_breakdown[L2_WR_ALLOC_R][HIT] = 0
	L2_cache_stats_breakdown[L2_WR_ALLOC_R][HIT_RESERVED] = 0
	L2_cache_stats_breakdown[L2_WR_ALLOC_R][MISS] = 0
	L2_cache_stats_breakdown[L2_WR_ALLOC_R][RESERVATION_FAIL] = 0
	L2_cache_stats_breakdown[L2_WR_ALLOC_R][SECTOR_MISS] = 0
	L2_cache_stats_breakdown[GLOBAL_ACC_R][TOTAL_ACCESS] = 3759042
	L2_cache_stats_breakdown[CONST_ACC_R][TOTAL_ACCESS] = 160
	L2_cache_stats_breakdown[GLOBAL_ACC_W][TOTAL_ACCESS] = 4194310
	L2_cache_stats_breakdown[INST_ACC_R][TOTAL_ACCESS] = 3200
L2_total_cache_reservation_fail_breakdown:
	L2_cache_stats_fail_breakdown[GLOBAL_ACC_R][MSHR_MERGE_ENRTY_FAIL] = 162
	L2_cache_stats_fail_breakdown[CONST_ACC_R][MSHR_MERGE_ENRTY_FAIL] = 163
	L2_cache_stats_fail_breakdown[INST_ACC_R][MSHR_MERGE_ENRTY_FAIL] = 1530
L2_cache_data_port_util = 0.122
L2_cache_fill_port_util = 0.103

icnt_total_pkts_mem_to_simt=7956712
icnt_total_pkts_simt_to_mem=7954232
LD_mem_lat_dist  0 0 0 0 0 0 0 0 0 0 0 0 0 0 0 0 0 0 0 0 0 0 0 0 0 0 0
ST_mem_lat_dist  0 0 0 0 0 0 0 0 0 0 0 0 0 0 0 0 0 0 0 0 0 0 0 0 0 0 0
----------------------------Interconnect-DETAILS--------------------------------
Class 0:
Packet latency average = 39.5909
	minimum = 5
	maximum = 1151
Network latency average = 32.8053
	minimum = 5
	maximum = 1146
Slowest packet = 15737498
Flit latency average = 32.8053
	minimum = 5
	maximum = 1146
Slowest flit = 15737744
Fragmentation average = 0
	minimum = 0
	maximum = 0
Injected packet rate average = 0.331016
	minimum = 0.26598 (at node 101)
	maximum = 0.437953 (at node 7)
Accepted packet rate average = 0.331016
	minimum = 0.26598 (at node 101)
	maximum = 0.438033 (at node 7)
Injected flit rate average = 0.331016
	minimum = 0.26598 (at node 101)
	maximum = 0.437953 (at node 7)
Accepted flit rate average= 0.331016
	minimum = 0.26598 (at node 101)
	maximum = 0.438033 (at node 7)
Injected packet length average = 1
Accepted packet length average = 1
Total in-flight flits = 0 (0 measured)
====== Overall Traffic Statistics ======
====== Traffic class 0 ======
Packet latency average = 31.6087 (2 samples)
	minimum = 5 (2 samples)
	maximum = 859.5 (2 samples)
Network latency average = 24.4982 (2 samples)
	minimum = 5 (2 samples)
	maximum = 760 (2 samples)
Flit latency average = 24.4982 (2 samples)
	minimum = 5 (2 samples)
	maximum = 760 (2 samples)
Fragmentation average = 0 (2 samples)
	minimum = 0 (2 samples)
	maximum = 0 (2 samples)
Injected packet rate average = 0.285141 (2 samples)
	minimum = 0.230122 (2 samples)
	maximum = 0.375222 (2 samples)
Accepted packet rate average = 0.285141 (2 samples)
	minimum = 0.230122 (2 samples)
	maximum = 0.375346 (2 samples)
Injected flit rate average = 0.285141 (2 samples)
	minimum = 0.230122 (2 samples)
	maximum = 0.375222 (2 samples)
Accepted flit rate average = 0.285141 (2 samples)
	minimum = 0.230122 (2 samples)
	maximum = 0.375346 (2 samples)
Injected packet size average = 1 (2 samples)
Accepted packet size average = 1 (2 samples)
Hops average = 1 (2 samples)
----------------------------END-of-Interconnect-DETAILS-------------------------


gpgpu_simulation_time = 0 days, 2 hrs, 56 min, 32 sec (10592 sec)
gpgpu_simulation_rate = 122013 (inst/sec)
gpgpu_simulation_rate = 49 (cycle/sec)
Training done
GPGPU-Sim: *** exit detected ***
