

        *** GPGPU-Sim Simulator Version 4.0.0  [build gpgpu-sim_git-commit-_modified_] ***


GPGPU-Sim PTX: simulation mode 0 (can change with PTX_SIM_MODE_FUNC environment variable:
               1=functional simulation only, 0=detailed performance simulator)
GPGPU-Sim PTX: overriding embedded ptx with ptx file (PTX_SIM_USE_PTX_FILE is set)
GPGPU-Sim: Configuration options:

-save_embedded_ptx                      0 # saves ptx files embedded in binary as <n>.ptx
-keep                                   0 # keep intermediate files created by GPGPU-Sim when interfacing with external programs
-gpgpu_ptx_save_converted_ptxplus                    0 # Saved converted ptxplus to a file
-gpgpu_occupancy_sm_number                   70 # The SM number to pass to ptxas when getting register usage for computing GPU occupancy. This parameter is required in the config.
-ptx_opcode_latency_int         4,13,4,5,145 # Opcode latencies for integers <ADD,MAX,MUL,MAD,DIV>Default 1,1,19,25,145
-ptx_opcode_latency_fp          4,13,4,5,39 # Opcode latencies for single precision floating points <ADD,MAX,MUL,MAD,DIV>Default 1,1,1,1,30
-ptx_opcode_latency_dp         8,19,8,8,330 # Opcode latencies for double precision floating points <ADD,MAX,MUL,MAD,DIV>Default 8,8,8,8,335
-ptx_opcode_latency_sfu                  100 # Opcode latencies for SFU instructionsDefault 8
-ptx_opcode_latency_tesnor                   64 # Opcode latencies for Tensor instructionsDefault 64
-ptx_opcode_initiation_int            2,2,2,2,8 # Opcode initiation intervals for integers <ADD,MAX,MUL,MAD,DIV>Default 1,1,4,4,32
-ptx_opcode_initiation_fp            2,2,2,2,4 # Opcode initiation intervals for single precision floating points <ADD,MAX,MUL,MAD,DIV>Default 1,1,1,1,5
-ptx_opcode_initiation_dp          4,4,4,4,130 # Opcode initiation intervals for double precision floating points <ADD,MAX,MUL,MAD,DIV>Default 8,8,8,8,130
-ptx_opcode_initiation_sfu                    8 # Opcode initiation intervals for sfu instructionsDefault 8
-ptx_opcode_initiation_tensor                   64 # Opcode initiation intervals for tensor instructionsDefault 64
-cdp_latency         7200,8000,100,12000,1600 # CDP API latency <cudaStreamCreateWithFlags, cudaGetParameterBufferV2_init_perWarp, cudaGetParameterBufferV2_perKernel, cudaLaunchDeviceV2_init_perWarp, cudaLaunchDevicV2_perKernel>Default 7200,8000,100,12000,1600
-network_mode                           1 # Interconnection network mode
-inter_config_file   config_volta_islip.icnt # Interconnection network config file
-inct_in_buffer_limit                   64 # in_buffer_limit
-inct_out_buffer_limit                   64 # out_buffer_limit
-inct_subnets                           2 # subnets
-gpgpu_ptx_use_cuobjdump                    1 # Use cuobjdump to extract ptx and sass from binaries
-gpgpu_experimental_lib_support                    0 # Try to extract code from cuda libraries [Broken because of unknown cudaGetExportTable]
-checkpoint_option                      0 #  checkpointing flag (0 = no checkpoint)
-checkpoint_kernel                      1 #  checkpointing during execution of which kernel (1- 1st kernel)
-checkpoint_CTA                         0 #  checkpointing after # of CTA (< less than total CTA)
-resume_option                          0 #  resume flag (0 = no resume)
-resume_kernel                          0 #  Resume from which kernel (1= 1st kernel)
-resume_CTA                             0 #  resume from which CTA 
-checkpoint_CTA_t                       0 #  resume from which CTA 
-checkpoint_insn_Y                      0 #  resume from which CTA 
-gpgpu_ptx_convert_to_ptxplus                    0 # Convert SASS (native ISA) to ptxplus and run ptxplus
-gpgpu_ptx_force_max_capability                   70 # Force maximum compute capability
-gpgpu_ptx_inst_debug_to_file                    0 # Dump executed instructions' debug information to file
-gpgpu_ptx_inst_debug_file       inst_debug.txt # Executed instructions' debug output file
-gpgpu_ptx_inst_debug_thread_uid                    1 # Thread UID for executed instructions' debug output
-gpgpu_simd_model                       1 # 1 = post-dominator
-gpgpu_shader_core_pipeline              2048:32 # shader core pipeline config, i.e., {<nthread>:<warpsize>}
-gpgpu_tex_cache:l1  N:16:128:24,L:R:m:N:L,T:128:4,128:2 # per-shader L1 texture cache  (READ-ONLY) config  {<nsets>:<bsize>:<assoc>,<rep>:<wr>:<alloc>:<wr_alloc>,<mshr>:<N>:<merge>,<mq>:<rf>}
-gpgpu_const_cache:l1 N:128:64:8,L:R:f:N:L,S:2:64,4 # per-shader L1 constant memory cache  (READ-ONLY) config  {<nsets>:<bsize>:<assoc>,<rep>:<wr>:<alloc>:<wr_alloc>,<mshr>:<N>:<merge>,<mq>} 
-gpgpu_cache:il1     N:64:128:16,L:R:f:N:L,S:2:48,4 # shader L1 instruction cache config  {<nsets>:<bsize>:<assoc>,<rep>:<wr>:<alloc>:<wr_alloc>,<mshr>:<N>:<merge>,<mq>} 
-gpgpu_cache:dl1     S:4:128:64,L:L:s:N:L,A:256:8,16:0,32 # per-shader L1 data cache config  {<nsets>:<bsize>:<assoc>,<rep>:<wr>:<alloc>:<wr_alloc>,<mshr>:<N>:<merge>,<mq> | none}
-l1_latency                            28 # L1 Hit Latency
-smem_latency                          19 # smem Latency
-gpgpu_cache:dl1PrefL1                 none # per-shader L1 data cache config  {<nsets>:<bsize>:<assoc>,<rep>:<wr>:<alloc>:<wr_alloc>,<mshr>:<N>:<merge>,<mq> | none}
-gpgpu_cache:dl1PrefShared                 none # per-shader L1 data cache config  {<nsets>:<bsize>:<assoc>,<rep>:<wr>:<alloc>:<wr_alloc>,<mshr>:<N>:<merge>,<mq> | none}
-gmem_skip_L1D                          0 # global memory access skip L1D cache (implements -Xptxas -dlcm=cg, default=no skip)
-gpgpu_perfect_mem                      0 # enable perfect memory mode (no cache miss)
-n_regfile_gating_group                    4 # group of lanes that should be read/written together)
-gpgpu_clock_gated_reg_file                    0 # enable clock gated reg file for power calculations
-gpgpu_clock_gated_lanes                    0 # enable clock gated lanes for power calculations
-gpgpu_shader_registers                65536 # Number of registers per shader core. Limits number of concurrent CTAs. (default 8192)
-gpgpu_registers_per_block                 8192 # Maximum number of registers per CTA. (default 8192)
-gpgpu_ignore_resources_limitation                    0 # gpgpu_ignore_resources_limitation (default 0)
-gpgpu_shader_cta                      32 # Maximum number of concurrent CTAs in shader (default 8)
-gpgpu_num_cta_barriers                   16 # Maximum number of named barriers per CTA (default 16)
-gpgpu_n_clusters                      16 # number of processing clusters
-gpgpu_n_cores_per_cluster                    2 # number of simd cores per cluster
-gpgpu_n_cluster_ejection_buffer_size                   32 # number of packets in ejection buffer
-gpgpu_n_ldst_response_buffer_size                    2 # number of response packets in ld/st unit ejection buffer
-gpgpu_shmem_per_block                49152 # Size of shared memory per thread block or CTA (default 48kB)
-gpgpu_shmem_size                   16384 # Size of shared memory per shader core (default 16kB)
-adaptive_volta_cache_config                    1 # adaptive_volta_cache_config
-gpgpu_shmem_size                   98304 # Size of shared memory per shader core (default 16kB)
-gpgpu_shmem_size_PrefL1                16384 # Size of shared memory per shader core (default 16kB)
-gpgpu_shmem_size_PrefShared                16384 # Size of shared memory per shader core (default 16kB)
-gpgpu_shmem_num_banks                   32 # Number of banks in the shared memory in each shader core (default 16)
-gpgpu_shmem_limited_broadcast                    0 # Limit shared memory to do one broadcast per cycle (default on)
-gpgpu_shmem_warp_parts                    1 # Number of portions a warp is divided into for shared memory bank conflict check 
-mem_unit_ports                         4 # The number of memory transactions allowed per core cycle
-gpgpu_shmem_warp_parts                    1 # Number of portions a warp is divided into for shared memory bank conflict check 
-gpgpu_warpdistro_shader                   -1 # Specify which shader core to collect the warp size distribution from
-gpgpu_warp_issue_shader                    0 # Specify which shader core to collect the warp issue distribution from
-gpgpu_local_mem_map                    1 # Mapping from local memory space address to simulated GPU physical address space (default = enabled)
-gpgpu_num_reg_banks                    8 # Number of register banks (default = 8)
-gpgpu_reg_bank_use_warp_id                    0 # Use warp ID in mapping registers to banks (default = off)
-sub_core_model                         1 # Sub Core Volta/Pascal model (default = off)
-enable_specialized_operand_collector                    0 # enable_specialized_operand_collector
-gpgpu_operand_collector_num_units_sp                    4 # number of collector units (default = 4)
-gpgpu_operand_collector_num_units_dp                    0 # number of collector units (default = 0)
-gpgpu_operand_collector_num_units_sfu                    4 # number of collector units (default = 4)
-gpgpu_operand_collector_num_units_int                    0 # number of collector units (default = 0)
-gpgpu_operand_collector_num_units_tensor_core                    4 # number of collector units (default = 4)
-gpgpu_operand_collector_num_units_mem                    2 # number of collector units (default = 2)
-gpgpu_operand_collector_num_units_gen                    8 # number of collector units (default = 0)
-gpgpu_operand_collector_num_in_ports_sp                    1 # number of collector unit in ports (default = 1)
-gpgpu_operand_collector_num_in_ports_dp                    0 # number of collector unit in ports (default = 0)
-gpgpu_operand_collector_num_in_ports_sfu                    1 # number of collector unit in ports (default = 1)
-gpgpu_operand_collector_num_in_ports_int                    0 # number of collector unit in ports (default = 0)
-gpgpu_operand_collector_num_in_ports_tensor_core                    1 # number of collector unit in ports (default = 1)
-gpgpu_operand_collector_num_in_ports_mem                    1 # number of collector unit in ports (default = 1)
-gpgpu_operand_collector_num_in_ports_gen                    8 # number of collector unit in ports (default = 0)
-gpgpu_operand_collector_num_out_ports_sp                    1 # number of collector unit in ports (default = 1)
-gpgpu_operand_collector_num_out_ports_dp                    0 # number of collector unit in ports (default = 0)
-gpgpu_operand_collector_num_out_ports_sfu                    1 # number of collector unit in ports (default = 1)
-gpgpu_operand_collector_num_out_ports_int                    0 # number of collector unit in ports (default = 0)
-gpgpu_operand_collector_num_out_ports_tensor_core                    1 # number of collector unit in ports (default = 1)
-gpgpu_operand_collector_num_out_ports_mem                    1 # number of collector unit in ports (default = 1)
-gpgpu_operand_collector_num_out_ports_gen                    8 # number of collector unit in ports (default = 0)
-gpgpu_coalesce_arch                   60 # Coalescing arch (GT200 = 13, Fermi = 20)
-gpgpu_num_sched_per_core                    4 # Number of warp schedulers per core
-gpgpu_max_insn_issue_per_warp                    1 # Max number of instructions that can be issued per warp in one cycle by scheduler (either 1 or 2)
-gpgpu_dual_issue_diff_exec_units                    1 # should dual issue use two different execution unit resources (Default = 1)
-gpgpu_simt_core_sim_order                    1 # Select the simulation order of cores in a cluster (0=Fix, 1=Round-Robin)
-gpgpu_pipeline_widths 4,4,4,4,4,4,4,4,4,4,8,4,4 # Pipeline widths ID_OC_SP,ID_OC_DP,ID_OC_INT,ID_OC_SFU,ID_OC_MEM,OC_EX_SP,OC_EX_DP,OC_EX_INT,OC_EX_SFU,OC_EX_MEM,EX_WB,ID_OC_TENSOR_CORE,OC_EX_TENSOR_CORE
-gpgpu_tensor_core_avail                    1 # Tensor Core Available (default=0)
-gpgpu_num_sp_units                     4 # Number of SP units (default=1)
-gpgpu_num_dp_units                     4 # Number of DP units (default=0)
-gpgpu_num_int_units                    4 # Number of INT units (default=0)
-gpgpu_num_sfu_units                    4 # Number of SF units (default=1)
-gpgpu_num_tensor_core_units                    4 # Number of tensor_core units (default=1)
-gpgpu_num_mem_units                    1 # Number if ldst units (default=1) WARNING: not hooked up to anything
-gpgpu_scheduler                      gto # Scheduler configuration: < lrr | gto | two_level_active > If two_level_active:<num_active_warps>:<inner_prioritization>:<outer_prioritization>For complete list of prioritization values see shader.h enum scheduler_prioritization_typeDefault: gto
-gpgpu_concurrent_kernel_sm                    0 # Support concurrent kernels on a SM (default = disabled)
-perf_sim_memcpy                        1 # Fill the L2 cache on memcpy
-gpgpu_dram_scheduler                    1 # 0 = fifo, 1 = FR-FCFS (defaul)
-gpgpu_dram_partition_queues          64:64:64:64 # i2$:$2d:d2$:$2i
-l2_ideal                               0 # Use a ideal L2 cache that always hit
-gpgpu_cache:dl2     S:32:128:24,L:B:m:L:L,A:192:4,32:0,32 # unified banked L2 data cache config  {<nsets>:<bsize>:<assoc>,<rep>:<wr>:<alloc>:<wr_alloc>,<mshr>:<N>:<merge>,<mq>}
-gpgpu_cache:dl2_texture_only                    0 # L2 cache used for texture only
-gpgpu_n_mem                          128 # number of memory modules (e.g. memory controllers) in gpu
-gpgpu_n_sub_partition_per_mchannel                    2 # number of memory subpartition in each memory module
-gpgpu_n_mem_per_ctrlr                    1 # number of memory chips per memory controller
-gpgpu_memlatency_stat                   14 # track and display latency statistics 0x2 enables MC, 0x4 enables queue logs
-gpgpu_frfcfs_dram_sched_queue_size                   64 # 0 = unlimited (default); # entries per chip
-gpgpu_dram_return_queue_size                  192 # 0 = unlimited (default); # entries per chip
-gpgpu_dram_buswidth                   16 # default = 4 bytes (8 bytes per cycle at DDR)
-gpgpu_dram_burst_length                    2 # Burst length of each DRAM request (default = 4 data bus cycle)
-dram_data_command_freq_ratio                    2 # Frequency ratio between DRAM data bus and command bus (default = 2 times, i.e. DDR)
-gpgpu_dram_timing_opt nbk=16:CCD=1:RRD=3:RCD=12:RAS=28:RP=12:RC=40: CL=12:WL=2:CDLR=3:WR=10:nbkgrp=4:CCDL=2:RTPL=3 # DRAM timing parameters = {nbk:tCCD:tRRD:tRCD:tRAS:tRP:tRC:CL:WL:tCDLR:tWR:nbkgrp:tCCDL:tRTPL}
-rop_latency                          120 # ROP queue latency (default 85)
-dram_latency                         100 # DRAM latency (default 30)
-dual_bus_interface                     1 # dual_bus_interface (default = 0) 
-dram_bnk_indexing_policy                    0 # dram_bnk_indexing_policy (0 = normal indexing, 1 = Xoring with the higher bits) (Default = 0)
-dram_bnkgrp_indexing_policy                    1 # dram_bnkgrp_indexing_policy (0 = take higher bits, 1 = take lower bits) (Default = 0)
-Seperate_Write_Queue_Enable                    0 # Seperate_Write_Queue_Enable
-Write_Queue_Size                32:28:16 # Write_Queue_Size
-Elimnate_rw_turnaround                    0 # elimnate_rw_turnaround i.e set tWTR and tRTW = 0
-icnt_flit_size                        40 # icnt_flit_size
-gpgpu_mem_addr_mapping dramid@8;00000000.00000000.00000000.00000000.0000RRRR.RRRRRRRR.RBBBCCCB.CCCSSSSS # mapping memory address to dram model {dramid@<start bit>;<memory address map>}
-gpgpu_mem_addr_test                    0 # run sweep test to check address mapping for aliased address
-gpgpu_mem_address_mask                    1 # 0 = old addressing mask, 1 = new addressing mask, 2 = new add. mask + flipped bank sel and chip sel bits
-memory_partition_indexing                    0 # 0 = no indexing, 1 = bitwise xoring, 2 = IPoly, 3 = custom indexing
-gpuwattch_xml_file  gpuwattch_gtx1080Ti_to_volta.xml # GPUWattch XML file
-power_simulation_enabled                    1 # Turn on power simulator (1=On, 0=Off)
-power_per_cycle_dump                    0 # Dump detailed power output each cycle
-power_trace_enabled                    0 # produce a file for the power trace (1=On, 0=Off)
-power_trace_zlevel                     6 # Compression level of the power trace output log (0=no comp, 9=highest)
-steady_power_levels_enabled                    0 # produce a file for the steady power levels (1=On, 0=Off)
-steady_state_definition                  8:4 # allowed deviation:number of samples
-gpgpu_max_cycle                        0 # terminates gpu simulation early (0 = no limit)
-gpgpu_max_insn                         0 # terminates gpu simulation early (0 = no limit)
-gpgpu_max_cta                          0 # terminates gpu simulation early (0 = no limit)
-gpgpu_runtime_stat                   500 # display runtime statistics such as dram utilization {<freq>:<flag>}
-liveness_message_freq                    1 # Minimum number of seconds between simulation liveness messages (0 = always print)
-gpgpu_compute_capability_major                    7 # Major compute capability version number
-gpgpu_compute_capability_minor                    0 # Minor compute capability version number
-gpgpu_flush_l1_cache                    1 # Flush L1 cache at the end of each kernel call
-gpgpu_flush_l2_cache                    0 # Flush L2 cache at the end of each kernel call
-gpgpu_deadlock_detect                    1 # Stop the simulation at deadlock (1=on (default), 0=off)
-gpgpu_ptx_instruction_classification                    0 # if enabled will classify ptx instruction types per kernel (Max 255 kernels now)
-gpgpu_ptx_sim_mode                     0 # Select between Performance (default) or Functional simulation (1)
-gpgpu_clock_domains 1455.0:1455.0:1455.0:850.0 # Clock Domain Frequencies in MhZ {<Core Clock>:<ICNT Clock>:<L2 Clock>:<DRAM Clock>}
-gpgpu_max_concurrent_kernel                    8 # maximum kernels that can run concurrently on GPU
-gpgpu_cflog_interval                    0 # Interval between each snapshot in control flow logger
-visualizer_enabled                     0 # Turn on visualizer output (1=On, 0=Off)
-visualizer_outputfile                 NULL # Specifies the output log file for visualizer
-visualizer_zlevel                      6 # Compression level of the visualizer output log (0=no comp, 9=highest)
-gpgpu_stack_size_limit                 1024 # GPU thread stack size
-gpgpu_heap_size_limit              8388608 # GPU malloc heap size 
-gpgpu_runtime_sync_depth_limit                    2 # GPU device runtime synchronize depth
-gpgpu_runtime_pending_launch_count_limit                 2048 # GPU device runtime pending launch count
-trace_enabled                          0 # Turn on traces
-trace_components                    none # comma seperated list of traces to enable. Complete list found in trace_streams.tup. Default none
-trace_sampling_core                    0 # The core which is printed using CORE_DPRINTF. Default 0
-trace_sampling_memory_partition                   -1 # The memory partition which is printed using MEMPART_DPRINTF. Default -1 (i.e. all)
-enable_ptx_file_line_stats                    1 # Turn on PTX source line statistic profiling. (1 = On)
-ptx_line_stats_filename gpgpu_inst_stats.txt # Output file for PTX source line statistics.
-gpgpu_kernel_launch_latency                    0 # Kernel launch latency in cycles. Default: 0
-gpgpu_cdp_enabled                      0 # Turn on CDP
DRAM Timing Options:
nbk                                    16 # number of banks
CCD                                     1 # column to column delay
RRD                                     3 # minimal delay between activation of rows in different banks
RCD                                    12 # row to column delay
RAS                                    28 # time needed to activate row
RP                                     12 # time needed to precharge (deactivate) row
RC                                     40 # row cycle time
CDLR                                    3 # switching from write to read (changes tWTR)
WR                                     10 # last data-in to row precharge
CL                                     12 # CAS latency
WL                                      2 # Write latency
nbkgrp                                  4 # number of bank groups
CCDL                                    2 # column to column delay between accesses to different bank groups
RTPL                                    3 # read to precharge delay between accesses to different bank groups
Total number of memory sub partition = 256
addr_dec_mask[CHIP]  = 0000000000007f00 	high:15 low:8
addr_dec_mask[BK]    = 0000000000388000 	high:22 low:15
addr_dec_mask[ROW]   = 00000007ffc00000 	high:35 low:22
addr_dec_mask[COL]   = 00000000000700ff 	high:19 low:0
addr_dec_mask[BURST] = 000000000000001f 	high:5 low:0
sub_partition_id_mask = 0000000000008000
GPGPU-Sim uArch: clock freqs: 1455000000.000000:1455000000.000000:1455000000.000000:850000000.000000
GPGPU-Sim uArch: clock periods: 0.00000000068728522337:0.00000000068728522337:0.00000000068728522337:0.00000000117647058824
*** Initializing Memory Statistics ***
GPGPU-Sim uArch: interconnect node map (shaderID+MemID to icntID)
GPGPU-Sim uArch: Memory nodes ID start from index: 16
GPGPU-Sim uArch:    0   1   2   3   4   5   6   7   8   9  10  11  12  13  14  15
GPGPU-Sim uArch:   16  17  18  19  20  21  22  23  24  25  26  27  28  29  30  31
GPGPU-Sim uArch:   32  33  34  35  36  37  38  39  40  41  42  43  44  45  46  47
GPGPU-Sim uArch:   48  49  50  51  52  53  54  55  56  57  58  59  60  61  62  63
GPGPU-Sim uArch:   64  65  66  67  68  69  70  71  72  73  74  75  76  77  78  79
GPGPU-Sim uArch:   80  81  82  83  84  85  86  87  88  89  90  91  92  93  94  95
GPGPU-Sim uArch:   96  97  98  99 100 101 102 103 104 105 106 107 108 109 110 111
GPGPU-Sim uArch:  112 113 114 115 116 117 118 119 120 121 122 123 124 125 126 127
GPGPU-Sim uArch:  128 129 130 131 132 133 134 135 136 137 138 139 140 141 142 143
GPGPU-Sim uArch:  144 145 146 147 148 149 150 151 152 153 154 155 156 157 158 159
GPGPU-Sim uArch:  160 161 162 163 164 165 166 167 168 169 170 171 172 173 174 175
GPGPU-Sim uArch:  176 177 178 179 180 181 182 183 184 185 186 187 188 189 190 191
GPGPU-Sim uArch:  192 193 194 195 196 197 198 199 200 201 202 203 204 205 206 207
GPGPU-Sim uArch:  208 209 210 211 212 213 214 215 216 217 218 219 220 221 222 223
GPGPU-Sim uArch:  224 225 226 227 228 229 230 231 232 233 234 235 236 237 238 239
GPGPU-Sim uArch:  240 241 242 243 244 245 246 247 248 249 250 251 252 253 254 255
GPGPU-Sim uArch:  256 257 258 259 260 261 262 263 264 265 266 267 268 269 270 271
GPGPU-Sim uArch: interconnect node reverse map (icntID to shaderID+MemID)
GPGPU-Sim uArch: Memory nodes start from ID: 16
GPGPU-Sim uArch:    0   1   2   3   4   5   6   7   8   9  10  11  12  13  14  15
GPGPU-Sim uArch:   16  17  18  19  20  21  22  23  24  25  26  27  28  29  30  31
GPGPU-Sim uArch:   32  33  34  35  36  37  38  39  40  41  42  43  44  45  46  47
GPGPU-Sim uArch:   48  49  50  51  52  53  54  55  56  57  58  59  60  61  62  63
GPGPU-Sim uArch:   64  65  66  67  68  69  70  71  72  73  74  75  76  77  78  79
GPGPU-Sim uArch:   80  81  82  83  84  85  86  87  88  89  90  91  92  93  94  95
GPGPU-Sim uArch:   96  97  98  99 100 101 102 103 104 105 106 107 108 109 110 111
GPGPU-Sim uArch:  112 113 114 115 116 117 118 119 120 121 122 123 124 125 126 127
GPGPU-Sim uArch:  128 129 130 131 132 133 134 135 136 137 138 139 140 141 142 143
GPGPU-Sim uArch:  144 145 146 147 148 149 150 151 152 153 154 155 156 157 158 159
GPGPU-Sim uArch:  160 161 162 163 164 165 166 167 168 169 170 171 172 173 174 175
GPGPU-Sim uArch:  176 177 178 179 180 181 182 183 184 185 186 187 188 189 190 191
GPGPU-Sim uArch:  192 193 194 195 196 197 198 199 200 201 202 203 204 205 206 207
GPGPU-Sim uArch:  208 209 210 211 212 213 214 215 216 217 218 219 220 221 222 223
GPGPU-Sim uArch:  224 225 226 227 228 229 230 231 232 233 234 235 236 237 238 239
GPGPU-Sim uArch:  240 241 242 243 244 245 246 247 248 249 250 251 252 253 254 255
GPGPU-Sim uArch:  256 257 258 259 260 261 262 263 264 265 266 267 268 269 270 271
acfad532b36bf3d6bee3aca2b2068a7d  /home/seongguk/rodinia_3.1_dev/bin/linux/cuda/backprop
Extracting PTX file and ptxas options    1: backprop.1.sm_30.ptx -arch=sm_30
GPGPU-Sim uArch: performance model initialization complete.
self exe links to: /home/seongguk/rodinia_3.1_dev/bin/linux/cuda/backprop
self exe links to: /home/seongguk/rodinia_3.1_dev/bin/linux/cuda/backprop
9.1
GPGPU-Sim PTX: __cudaRegisterFatBinary, fat_cubin_handle = 1, filename=default
self exe links to: /home/seongguk/rodinia_3.1_dev/bin/linux/cuda/backprop
Running md5sum using "md5sum /home/seongguk/rodinia_3.1_dev/bin/linux/cuda/backprop "
self exe links to: /home/seongguk/rodinia_3.1_dev/bin/linux/cuda/backprop
Extracting specific PTX file named backprop.1.sm_30.ptx 
GPGPU-Sim PTX: __cudaRegisterFunction _Z24bpnn_adjust_weights_cudaPfiS_iS_S_ : hostFun 0x0x402350, fat_cubin_handle = 1
GPGPU-Sim PTX: Parsing backprop.1.sm_30.ptx
GPGPU-Sim PTX: allocating shared region for "_Z22bpnn_layerforward_CUDAPfS_S_S_ii$__cuda_local_var_17647_34_non_const_input_node" from 0x0 to 0x40 (shared memory space)
GPGPU-Sim PTX: allocating shared region for "_Z22bpnn_layerforward_CUDAPfS_S_S_ii$__cuda_local_var_17648_34_non_const_weight_matrix" from 0x80 to 0x480 (shared memory space)
GPGPU-Sim PTX: instruction assembly for function '_Z22bpnn_layerforward_CUDAPfS_S_S_ii'...   done.
GPGPU-Sim PTX: instruction assembly for function '_Z24bpnn_adjust_weights_cudaPfiS_iS_S_'...   done.
GPGPU-Sim PTX: finished parsing EMBEDDED .ptx file backprop.1.sm_30.ptx
GPGPU-Sim PTX: loading globals with explicit initializers... 
GPGPU-Sim PTX: finished loading globals (0 bytes total).
GPGPU-Sim PTX: loading constants with explicit initializers...  done.
GPGPU-Sim PTX: Loading PTXInfo from backprop.1.sm_30.ptx
GPGPU-Sim PTX: Kernel '_Z24bpnn_adjust_weights_cudaPfiS_iS_S_' : regs=21, lmem=0, smem=0, cmem=376
GPGPU-Sim PTX: Kernel '_Z22bpnn_layerforward_CUDAPfS_S_S_ii' : regs=14, lmem=0, smem=1088, cmem=360
GPGPU-Sim PTX: __cudaRegisterFunction _Z22bpnn_layerforward_CUDAPfS_S_S_ii : hostFun 0x0x402270, fat_cubin_handle = 1
Random number generator seed: 7
Input layer size : 65536
Starting training kernel
Performing GPU computation
GPGPU-Sim PTX: Setting up arguments for 8 bytes starting at 0x7ffdcaced998..
GPGPU-Sim PTX: Setting up arguments for 8 bytes starting at 0x7ffdcaced990..
GPGPU-Sim PTX: Setting up arguments for 8 bytes starting at 0x7ffdcaced988..
GPGPU-Sim PTX: Setting up arguments for 8 bytes starting at 0x7ffdcaced980..
GPGPU-Sim PTX: Setting up arguments for 4 bytes starting at 0x7ffdcaced97c..
GPGPU-Sim PTX: Setting up arguments for 4 bytes starting at 0x7ffdcaced978..

GPGPU-Sim PTX: cudaLaunch for 0x0x402270 (mode=performance simulation) on stream 0
GPGPU-Sim PTX: finding reconvergence points for '_Z22bpnn_layerforward_CUDAPfS_S_S_ii'...
GPGPU-Sim PTX: Finding dominators for '_Z22bpnn_layerforward_CUDAPfS_S_S_ii'...
GPGPU-Sim PTX: Finding immediate dominators for '_Z22bpnn_layerforward_CUDAPfS_S_S_ii'...
GPGPU-Sim PTX: Finding postdominators for '_Z22bpnn_layerforward_CUDAPfS_S_S_ii'...
GPGPU-Sim PTX: Finding immediate postdominators for '_Z22bpnn_layerforward_CUDAPfS_S_S_ii'...
GPGPU-Sim PTX: pre-decoding instructions for '_Z22bpnn_layerforward_CUDAPfS_S_S_ii'...
GPGPU-Sim PTX: reconvergence points for _Z22bpnn_layerforward_CUDAPfS_S_S_ii...
GPGPU-Sim PTX:  1 (potential) branch divergence @  PC=0x068 (backprop.1.sm_30.ptx:48) @%p2 bra BB0_2;
GPGPU-Sim PTX:    immediate post dominator      @  PC=0x098 (backprop.1.sm_30.ptx:57) cvta.to.global.u64 %rd1, %rd4;
GPGPU-Sim PTX:  2 (potential) branch divergence @  PC=0x150 (backprop.1.sm_30.ptx:80) @%p3 bra BB0_7;
GPGPU-Sim PTX:    immediate post dominator      @  PC=0x228 (backprop.1.sm_30.ptx:115) setp.eq.s32%p1, %r4, 0;
GPGPU-Sim PTX:  3 (potential) branch divergence @  PC=0x1a0 (backprop.1.sm_30.ptx:93) @%p4 bra BB0_6;
GPGPU-Sim PTX:    immediate post dominator      @  PC=0x200 (backprop.1.sm_30.ptx:108) bar.sync 0;
GPGPU-Sim PTX:  4 (potential) branch divergence @  PC=0x220 (backprop.1.sm_30.ptx:112) @%p5 bra BB0_4;
GPGPU-Sim PTX:    immediate post dominator      @  PC=0x228 (backprop.1.sm_30.ptx:115) setp.eq.s32%p1, %r4, 0;
GPGPU-Sim PTX:  5 (potential) branch divergence @  PC=0x248 (backprop.1.sm_30.ptx:119) @!%p1 bra BB0_9;
GPGPU-Sim PTX:    immediate post dominator      @  PC=0x290 (backprop.1.sm_30.ptx:132) ret;
GPGPU-Sim PTX:  6 (potential) branch divergence @  PC=0x250 (backprop.1.sm_30.ptx:120) bra.uni BB0_8;
GPGPU-Sim PTX:    immediate post dominator      @  PC=0x258 (backprop.1.sm_30.ptx:123) cvta.to.global.u64 %rd10, %rd5;
GPGPU-Sim PTX: ... end of reconvergence points for _Z22bpnn_layerforward_CUDAPfS_S_S_ii
GPGPU-Sim PTX: ... done pre-decoding instructions for '_Z22bpnn_layerforward_CUDAPfS_S_S_ii'.
GPGPU-Sim PTX: pushing kernel '_Z22bpnn_layerforward_CUDAPfS_S_S_ii' to stream 0, gridDim= (1,4096,1) blockDim = (16,16,1) 
GPGPU-Sim uArch: Shader 0 bind to kernel 1 '_Z22bpnn_layerforward_CUDAPfS_S_S_ii'
GPGPU-Sim uArch: CTA/core = 8, limited by: threads
GPGPU-Sim: Reconfigure L1 cache in Volta Archi to 112KB
GPGPU-Sim uArch: Shader 2 bind to kernel 1 '_Z22bpnn_layerforward_CUDAPfS_S_S_ii'
GPGPU-Sim uArch: Shader 4 bind to kernel 1 '_Z22bpnn_layerforward_CUDAPfS_S_S_ii'
GPGPU-Sim uArch: Shader 6 bind to kernel 1 '_Z22bpnn_layerforward_CUDAPfS_S_S_ii'
GPGPU-Sim uArch: Shader 8 bind to kernel 1 '_Z22bpnn_layerforward_CUDAPfS_S_S_ii'
GPGPU-Sim uArch: Shader 10 bind to kernel 1 '_Z22bpnn_layerforward_CUDAPfS_S_S_ii'
GPGPU-Sim uArch: Shader 12 bind to kernel 1 '_Z22bpnn_layerforward_CUDAPfS_S_S_ii'
GPGPU-Sim uArch: Shader 14 bind to kernel 1 '_Z22bpnn_layerforward_CUDAPfS_S_S_ii'
GPGPU-Sim uArch: Shader 16 bind to kernel 1 '_Z22bpnn_layerforward_CUDAPfS_S_S_ii'
GPGPU-Sim uArch: Shader 18 bind to kernel 1 '_Z22bpnn_layerforward_CUDAPfS_S_S_ii'
GPGPU-Sim uArch: Shader 20 bind to kernel 1 '_Z22bpnn_layerforward_CUDAPfS_S_S_ii'
GPGPU-Sim uArch: Shader 22 bind to kernel 1 '_Z22bpnn_layerforward_CUDAPfS_S_S_ii'
GPGPU-Sim uArch: Shader 24 bind to kernel 1 '_Z22bpnn_layerforward_CUDAPfS_S_S_ii'
GPGPU-Sim uArch: Shader 26 bind to kernel 1 '_Z22bpnn_layerforward_CUDAPfS_S_S_ii'
GPGPU-Sim uArch: Shader 28 bind to kernel 1 '_Z22bpnn_layerforward_CUDAPfS_S_S_ii'
GPGPU-Sim uArch: Shader 30 bind to kernel 1 '_Z22bpnn_layerforward_CUDAPfS_S_S_ii'
GPGPU-Sim uArch: Shader 1 bind to kernel 1 '_Z22bpnn_layerforward_CUDAPfS_S_S_ii'
GPGPU-Sim uArch: Shader 3 bind to kernel 1 '_Z22bpnn_layerforward_CUDAPfS_S_S_ii'
GPGPU-Sim uArch: Shader 5 bind to kernel 1 '_Z22bpnn_layerforward_CUDAPfS_S_S_ii'
GPGPU-Sim uArch: Shader 7 bind to kernel 1 '_Z22bpnn_layerforward_CUDAPfS_S_S_ii'
GPGPU-Sim uArch: Shader 9 bind to kernel 1 '_Z22bpnn_layerforward_CUDAPfS_S_S_ii'
GPGPU-Sim uArch: Shader 11 bind to kernel 1 '_Z22bpnn_layerforward_CUDAPfS_S_S_ii'
GPGPU-Sim uArch: Shader 13 bind to kernel 1 '_Z22bpnn_layerforward_CUDAPfS_S_S_ii'
GPGPU-Sim uArch: Shader 15 bind to kernel 1 '_Z22bpnn_layerforward_CUDAPfS_S_S_ii'
GPGPU-Sim uArch: Shader 17 bind to kernel 1 '_Z22bpnn_layerforward_CUDAPfS_S_S_ii'
GPGPU-Sim uArch: Shader 19 bind to kernel 1 '_Z22bpnn_layerforward_CUDAPfS_S_S_ii'
GPGPU-Sim uArch: Shader 21 bind to kernel 1 '_Z22bpnn_layerforward_CUDAPfS_S_S_ii'
GPGPU-Sim uArch: Shader 23 bind to kernel 1 '_Z22bpnn_layerforward_CUDAPfS_S_S_ii'
GPGPU-Sim uArch: Shader 25 bind to kernel 1 '_Z22bpnn_layerforward_CUDAPfS_S_S_ii'
GPGPU-Sim uArch: Shader 27 bind to kernel 1 '_Z22bpnn_layerforward_CUDAPfS_S_S_ii'
GPGPU-Sim uArch: Shader 29 bind to kernel 1 '_Z22bpnn_layerforward_CUDAPfS_S_S_ii'
GPGPU-Sim uArch: Shader 31 bind to kernel 1 '_Z22bpnn_layerforward_CUDAPfS_S_S_ii'
Destroy streams for kernel 1: size 0
kernel_name = _Z22bpnn_layerforward_CUDAPfS_S_S_ii 
kernel_launch_uid = 1 
gpu_sim_cycle = 71362
gpu_sim_insn = 104923136
gpu_ipc =    1470.2942
gpu_tot_sim_cycle = 71362
gpu_tot_sim_insn = 104923136
gpu_tot_ipc =    1470.2942
gpu_tot_issued_cta = 4096
gpu_occupancy = 98.9711% 
gpu_tot_occupancy = 98.9711% 
max_total_param_size = 0
gpu_stall_dramfull = 488
gpu_stall_icnt2sh    = 0
partiton_level_parallism =       4.9321
partiton_level_parallism_total  =       4.9321
partiton_level_parallism_util =       8.2982
partiton_level_parallism_util_total  =       8.2982
L2_BW  =     230.0375 GB/Sec
L2_BW_total  =     230.0375 GB/Sec
gpu_total_sim_rate=199095

========= Core cache stats =========
L1I_cache:
	L1I_total_cache_accesses = 2203648
	L1I_total_cache_misses = 9115
	L1I_total_cache_miss_rate = 0.0041
	L1I_total_cache_pending_hits = 0
	L1I_total_cache_reservation_fails = 38514
L1D_cache:
	L1D_cache_core[0]: Access = 25088, Miss = 16145, Miss_rate = 0.644, Pending_hits = 0, Reservation_fails = 367
	L1D_cache_core[1]: Access = 25088, Miss = 16139, Miss_rate = 0.643, Pending_hits = 0, Reservation_fails = 329
	L1D_cache_core[2]: Access = 25088, Miss = 16141, Miss_rate = 0.643, Pending_hits = 0, Reservation_fails = 108
	L1D_cache_core[3]: Access = 25088, Miss = 16139, Miss_rate = 0.643, Pending_hits = 0, Reservation_fails = 376
	L1D_cache_core[4]: Access = 25088, Miss = 16149, Miss_rate = 0.644, Pending_hits = 0, Reservation_fails = 112
	L1D_cache_core[5]: Access = 25088, Miss = 16140, Miss_rate = 0.643, Pending_hits = 0, Reservation_fails = 381
	L1D_cache_core[6]: Access = 25088, Miss = 16140, Miss_rate = 0.643, Pending_hits = 0, Reservation_fails = 133
	L1D_cache_core[7]: Access = 25088, Miss = 16127, Miss_rate = 0.643, Pending_hits = 0, Reservation_fails = 203
	L1D_cache_core[8]: Access = 25088, Miss = 16144, Miss_rate = 0.643, Pending_hits = 0, Reservation_fails = 288
	L1D_cache_core[9]: Access = 25088, Miss = 16147, Miss_rate = 0.644, Pending_hits = 0, Reservation_fails = 59
	L1D_cache_core[10]: Access = 25088, Miss = 16140, Miss_rate = 0.643, Pending_hits = 0, Reservation_fails = 262
	L1D_cache_core[11]: Access = 25088, Miss = 16148, Miss_rate = 0.644, Pending_hits = 0, Reservation_fails = 252
	L1D_cache_core[12]: Access = 25088, Miss = 16146, Miss_rate = 0.644, Pending_hits = 0, Reservation_fails = 241
	L1D_cache_core[13]: Access = 25088, Miss = 16139, Miss_rate = 0.643, Pending_hits = 0, Reservation_fails = 159
	L1D_cache_core[14]: Access = 25088, Miss = 16149, Miss_rate = 0.644, Pending_hits = 0, Reservation_fails = 206
	L1D_cache_core[15]: Access = 25088, Miss = 16149, Miss_rate = 0.644, Pending_hits = 0, Reservation_fails = 214
	L1D_total_cache_accesses = 401408
	L1D_total_cache_misses = 258282
	L1D_total_cache_miss_rate = 0.6434
	L1D_total_cache_pending_hits = 0
	L1D_total_cache_reservation_fails = 3690
	L1D_cache_data_port_util = 0.016
	L1D_cache_fill_port_util = 0.017
L1C_cache:
	L1C_total_cache_accesses = 131072
	L1C_total_cache_misses = 2048
	L1C_total_cache_miss_rate = 0.0156
	L1C_total_cache_pending_hits = 0
	L1C_total_cache_reservation_fails = 31516
L1T_cache:
	L1T_total_cache_accesses = 0
	L1T_total_cache_misses = 0
	L1T_total_cache_pending_hits = 0
	L1T_total_cache_reservation_fails = 0

Total_core_cache_stats:
	Total_core_cache_stats_breakdown[GLOBAL_ACC_R][HIT] = 22
	Total_core_cache_stats_breakdown[GLOBAL_ACC_R][HIT_RESERVED] = 0
	Total_core_cache_stats_breakdown[GLOBAL_ACC_R][MISS] = 107524
	Total_core_cache_stats_breakdown[GLOBAL_ACC_R][RESERVATION_FAIL] = 3690
	Total_core_cache_stats_breakdown[GLOBAL_ACC_R][SECTOR_MISS] = 97254
	Total_core_cache_stats_breakdown[LOCAL_ACC_R][HIT] = 0
	Total_core_cache_stats_breakdown[LOCAL_ACC_R][HIT_RESERVED] = 0
	Total_core_cache_stats_breakdown[LOCAL_ACC_R][MISS] = 0
	Total_core_cache_stats_breakdown[LOCAL_ACC_R][RESERVATION_FAIL] = 0
	Total_core_cache_stats_breakdown[LOCAL_ACC_R][SECTOR_MISS] = 0
	Total_core_cache_stats_breakdown[CONST_ACC_R][HIT] = 129024
	Total_core_cache_stats_breakdown[CONST_ACC_R][HIT_RESERVED] = 0
	Total_core_cache_stats_breakdown[CONST_ACC_R][MISS] = 2048
	Total_core_cache_stats_breakdown[CONST_ACC_R][RESERVATION_FAIL] = 31516
	Total_core_cache_stats_breakdown[CONST_ACC_R][SECTOR_MISS] = 0
	Total_core_cache_stats_breakdown[TEXTURE_ACC_R][HIT] = 0
	Total_core_cache_stats_breakdown[TEXTURE_ACC_R][HIT_RESERVED] = 0
	Total_core_cache_stats_breakdown[TEXTURE_ACC_R][MISS] = 0
	Total_core_cache_stats_breakdown[TEXTURE_ACC_R][RESERVATION_FAIL] = 0
	Total_core_cache_stats_breakdown[TEXTURE_ACC_R][SECTOR_MISS] = 0
	Total_core_cache_stats_breakdown[GLOBAL_ACC_W][HIT] = 143104
	Total_core_cache_stats_breakdown[GLOBAL_ACC_W][HIT_RESERVED] = 0
	Total_core_cache_stats_breakdown[GLOBAL_ACC_W][MISS] = 51092
	Total_core_cache_stats_breakdown[GLOBAL_ACC_W][RESERVATION_FAIL] = 0
	Total_core_cache_stats_breakdown[GLOBAL_ACC_W][SECTOR_MISS] = 2412
	Total_core_cache_stats_breakdown[LOCAL_ACC_W][HIT] = 0
	Total_core_cache_stats_breakdown[LOCAL_ACC_W][HIT_RESERVED] = 0
	Total_core_cache_stats_breakdown[LOCAL_ACC_W][MISS] = 0
	Total_core_cache_stats_breakdown[LOCAL_ACC_W][RESERVATION_FAIL] = 0
	Total_core_cache_stats_breakdown[LOCAL_ACC_W][SECTOR_MISS] = 0
	Total_core_cache_stats_breakdown[L1_WRBK_ACC][HIT] = 0
	Total_core_cache_stats_breakdown[L1_WRBK_ACC][HIT_RESERVED] = 0
	Total_core_cache_stats_breakdown[L1_WRBK_ACC][MISS] = 0
	Total_core_cache_stats_breakdown[L1_WRBK_ACC][RESERVATION_FAIL] = 0
	Total_core_cache_stats_breakdown[L1_WRBK_ACC][SECTOR_MISS] = 0
	Total_core_cache_stats_breakdown[L2_WRBK_ACC][HIT] = 0
	Total_core_cache_stats_breakdown[L2_WRBK_ACC][HIT_RESERVED] = 0
	Total_core_cache_stats_breakdown[L2_WRBK_ACC][MISS] = 0
	Total_core_cache_stats_breakdown[L2_WRBK_ACC][RESERVATION_FAIL] = 0
	Total_core_cache_stats_breakdown[L2_WRBK_ACC][SECTOR_MISS] = 0
	Total_core_cache_stats_breakdown[INST_ACC_R][HIT] = 2194533
	Total_core_cache_stats_breakdown[INST_ACC_R][HIT_RESERVED] = 0
	Total_core_cache_stats_breakdown[INST_ACC_R][MISS] = 9115
	Total_core_cache_stats_breakdown[INST_ACC_R][RESERVATION_FAIL] = 38514
	Total_core_cache_stats_breakdown[INST_ACC_R][SECTOR_MISS] = 0
	Total_core_cache_stats_breakdown[L1_WR_ALLOC_R][HIT] = 0
	Total_core_cache_stats_breakdown[L1_WR_ALLOC_R][HIT_RESERVED] = 0
	Total_core_cache_stats_breakdown[L1_WR_ALLOC_R][MISS] = 0
	Total_core_cache_stats_breakdown[L1_WR_ALLOC_R][RESERVATION_FAIL] = 0
	Total_core_cache_stats_breakdown[L1_WR_ALLOC_R][SECTOR_MISS] = 0
	Total_core_cache_stats_breakdown[L2_WR_ALLOC_R][HIT] = 0
	Total_core_cache_stats_breakdown[L2_WR_ALLOC_R][HIT_RESERVED] = 0
	Total_core_cache_stats_breakdown[L2_WR_ALLOC_R][MISS] = 0
	Total_core_cache_stats_breakdown[L2_WR_ALLOC_R][RESERVATION_FAIL] = 0
	Total_core_cache_stats_breakdown[L2_WR_ALLOC_R][SECTOR_MISS] = 0
	Total_core_cache_stats_breakdown[GLOBAL_ACC_R][TOTAL_ACCESS] = 204800
	Total_core_cache_stats_breakdown[CONST_ACC_R][TOTAL_ACCESS] = 131072
	Total_core_cache_stats_breakdown[GLOBAL_ACC_W][TOTAL_ACCESS] = 196608
	Total_core_cache_stats_breakdown[INST_ACC_R][TOTAL_ACCESS] = 2203648

Total_core_cache_fail_stats:
	Total_core_cache_fail_stats_breakdown[GLOBAL_ACC_R][MISS_QUEUE_FULL] = 3690
	Total_core_cache_fail_stats_breakdown[CONST_ACC_R][MSHR_MERGE_ENRTY_FAIL] = 31516
	Total_core_cache_fail_stats_breakdown[INST_ACC_R][MSHR_MERGE_ENRTY_FAIL] = 38514
Shader 0 warp_id issue ditsribution:
warp_id:
0, 1, 2, 3, 4, 5, 6, 7, 8, 9, 10, 11, 12, 13, 14, 15, 16, 17, 18, 19, 20, 21, 22, 23, 24, 25, 26, 27, 28, 29, 30, 31, 32, 33, 34, 35, 36, 37, 38, 39, 40, 41, 42, 43, 44, 45, 46, 47, 48, 49, 50, 51, 52, 53, 54, 55, 56, 57, 58, 59, 60, 61, 62, 63, 
distro:
2384, 1856, 2032, 1856, 2208, 1856, 2032, 1856, 2384, 1856, 2032, 1856, 2208, 1856, 2032, 1856, 2384, 1856, 2032, 1856, 2208, 1856, 2032, 1856, 2384, 1856, 2032, 1856, 2208, 1856, 2032, 1856, 2384, 1856, 2032, 1856, 2208, 1856, 2032, 1856, 2384, 1856, 2032, 1856, 2208, 1856, 2032, 1856, 2384, 1856, 2032, 1856, 2208, 1856, 2032, 1856, 2384, 1856, 2032, 1856, 2208, 1856, 2032, 1856, 
gpgpu_n_tot_thrd_icount = 131727360
gpgpu_n_tot_w_icount = 4116480
gpgpu_n_stall_shd_mem = 302881
gpgpu_n_mem_read_local = 0
gpgpu_n_mem_write_local = 0
gpgpu_n_mem_read_global = 155136
gpgpu_n_mem_write_global = 196608
gpgpu_n_mem_texture = 0
gpgpu_n_mem_const = 32
gpgpu_n_load_insn  = 1114112
gpgpu_n_store_insn = 1114112
gpgpu_n_shmem_insn = 8323072
gpgpu_n_sstarr_insn = 0
gpgpu_n_tex_insn = 0
gpgpu_n_const_mem_insn = 0
gpgpu_n_param_mem_insn = 4194304
gpgpu_n_shmem_bkconflict = 0
gpgpu_n_cache_bkconflict = 0
gpgpu_n_intrawarp_mshr_merge = 0
gpgpu_n_cmem_portconflict = 31516
gpgpu_stall_shd_mem[c_mem][resource_stall] = 31516
gpgpu_stall_shd_mem[s_mem][bk_conf] = 0
gpgpu_stall_shd_mem[gl_mem][resource_stall] = 1029
gpgpu_stall_shd_mem[gl_mem][coal_stall] = 270336
gpgpu_stall_shd_mem[gl_mem][data_port_stall] = 0
gpu_reg_bank_conflict_stalls = 0
Warp Occupancy Distribution:
Stall:313249	W0_Idle:753430	W0_Scoreboard:3930569	W1:0	W2:425984	W3:0	W4:0	W5:0	W6:0	W7:0	W8:0	W9:0	W10:0	W11:0	W12:0	W13:0	W14:0	W15:0	W16:675840	W17:0	W18:0	W19:0	W20:0	W21:0	W22:0	W23:0	W24:0	W25:0	W26:0	W27:0	W28:0	W29:0	W30:0	W31:0	W32:3014656
single_issue_nums: WS0:1175552	WS1:950272	WS2:1040384	WS3:950272	
dual_issue_nums: WS0:0	WS1:0	WS2:0	WS3:0	
traffic_breakdown_coretomem[CONST_ACC_R] = 256 {8:32,}
traffic_breakdown_coretomem[GLOBAL_ACC_R] = 1241088 {8:155136,}
traffic_breakdown_coretomem[GLOBAL_ACC_W] = 7864320 {40:196608,}
traffic_breakdown_coretomem[INST_ACC_R] = 1536 {8:192,}
traffic_breakdown_memtocore[CONST_ACC_R] = 2560 {40:64,}
traffic_breakdown_memtocore[GLOBAL_ACC_R] = 6205440 {40:155136,}
traffic_breakdown_memtocore[GLOBAL_ACC_W] = 1572864 {8:196608,}
traffic_breakdown_memtocore[INST_ACC_R] = 30720 {40:768,}
maxmflatency = 594 
max_icnt2mem_latency = 402 
maxmrqlatency = 45 
max_icnt2sh_latency = 184 
averagemflatency = 174 
avg_icnt2mem_latency = 46 
avg_mrq_latency = 15 
avg_icnt2sh_latency = 7 
mrq_lat_table:7 	3 	3 	0 	9 	4 	0 	0 	0 	0 	0 	0 	0 	0 	0 	0 	0 	0 	0 	0 	0 	0 	0 	0 	0 	0 	0 	0 	0 	0 	0 	0 	
dq_lat_table:0 	0 	0 	0 	0 	0 	0 	0 	0 	0 	0 	0 	0 	0 	0 	0 	0 	0 	0 	0 	0 	0 	0 	0 	0 	0 	0 	0 	0 	0 	0 	0 	
mf_lat_table:0 	0 	0 	0 	0 	0 	0 	333713 	18069 	26 	0 	0 	0 	0 	0 	0 	0 	0 	0 	0 	0 	0 	0 	0 	0 	0 	0 	0 	0 	0 	0 	0 	
icnt2mem_lat_table:0 	0 	107 	28509 	143842 	111467 	50485 	15121 	2437 	0 	0 	0 	0 	0 	0 	0 	0 	0 	0 	0 	0 	0 	0 	0 	
icnt2sh_lat_table:0 	0 	346386 	4724 	646 	9 	8 	35 	0 	0 	0 	0 	0 	0 	0 	0 	0 	0 	0 	0 	0 	0 	0 	0 	
mf_lat_pw_table:0 	0 	0 	0 	0 	0 	0 	102 	4 	1 	0 	0 	0 	0 	0 	0 	0 	0 	0 	0 	0 	0 	0 	0 	0 	0 	0 	0 	0 	0 	0 	0 	
maximum concurrent accesses to same row:
dram[0]:         4         0         0         0         0         0         0         0         0         0         0         0         0         0         0         0 
dram[1]:         0         0         0         0         0         0         0         0         0         0         0         0         0         0         0         0 
dram[2]:         0         0         0         0         0         0         0         0         0         0         0         0         0         0         0         0 
dram[3]:         0         0         0         0         0         0         0         0         0         0         0         0         0         0         0         0 
dram[4]:         0         0         0         0         0         0         0         0         0         0         0         0         0         0         0         0 
dram[5]:         0         0         0         0         0         0         0         0         0         0         0         0         0         0         0         0 
dram[6]:         0         0         0         0         0         0         0         0         0         0         0         0         0         0         0         0 
dram[7]:         0         0         0         0         0         0         0         0         0         0         0         0         0         0         0         0 
dram[8]:         0         0         0         0         0         0         0         0         0         0         0         0         0         0         0         0 
dram[9]:         0         0         0         0         0         0         0         0         0         0         0         0         0         0         0         0 
dram[10]:         0         0         0         0         0         0         0         0         0         0         0         0         0         0         0         0 
dram[11]:         0         0         0         0         0         0         0         0         0         0         0         0         0         0         0         0 
dram[12]:         0         0         0         0         0         0         0         0         0         0         0         0         0         0         0         0 
dram[13]:         0         0         0         0         0         0         0         0         0         0         0         0         0         0         0         0 
dram[14]:         0         0         0         0         0         0         0         0         0         0         0         0         0         0         0         0 
dram[15]:         0         0         0         0         0         0         0         0         0         0         0         0         0         0         0         0 
dram[16]:         0         0         0         0         0         0         0         0         0         0         0         0         0         0         0         0 
dram[17]:         0         0         0         0         0         0         0         0         0         0         0         0         0         0         0         0 
dram[18]:         0         0         0         0         0         0         0         0         0         0         0         0         0         0         0         0 
dram[19]:         0         0         0         0         0         0         0         0         0         0         0         0         0         0         0         0 
dram[20]:         0         0         0         0         0         0         0         0         0         0         0         0         0         0         0         0 
dram[21]:         0         0         0         0         0         0         0         0         0         0         0         0         0         0         0         0 
dram[22]:         0         0         0         0         0         0         0         0         0         0         0         0         0         0         0         0 
dram[23]:         0         0         0         0         0         0         0         0         0         0         0         0         0         0         0         0 
dram[24]:         0         0         0         0         0         0         0         0         0         0         0         0         0         0         0         0 
dram[25]:         0         0         0         0         0         0         0         0         0         0         0         0         0         0         0         0 
dram[26]:         0         0         0         0         0         0         0         0         0         0         0         0         0         0         0         0 
dram[27]:         0         0         0         0         0         0         0         0         0         0         0         0         0         0         0         0 
dram[28]:         0         0         0         0         0         0         0         0         0         0         0         0         0         0         0         0 
dram[29]:         0         0         0         0         0         0         0         0         0         0         0         0         0         0         0         0 
dram[30]:         0         0         0         0         0         0         0         0         0         0         0         0         0         0         0         0 
dram[31]:         0         0         0         0         0         0         0         0         0         0         0         0         0         0         0         0 
dram[32]:         0         0         0         0         0         0         0         0         0         0         0         0         0         0         0         0 
dram[33]:         0         0         0         0         0         0         0         0         0         0         0         0         0         0         0         0 
dram[34]:         0         0         0         0         0         0         0         0         0         0         0         0         0         0         0         0 
dram[35]:         0         0         0         0         0         0         0         0         0         0         0         0         0         0         0         0 
dram[36]:         0         0         0         0         0         0         0         0         0         0         0         0         0         0         0         0 
dram[37]:         0         0         0         0         0         0         0         0         0         0         0         0         0         0         0         0 
dram[38]:         0         0         0         0         0         0         0         0         0         0         0         0         0         0         0         0 
dram[39]:         0         0         0         0         0         0         0         0         0         0         0         0         0         0         0         0 
dram[40]:         0         0         0         0         0         0         0         0         0         0         0         0         0         0         0         0 
dram[41]:         0         0         0         0         0         0         0         0         0         0         0         0         0         0         0         0 
dram[42]:         0         0         0         0         0         0         0         0         0         0         0         0         0         0         0         0 
dram[43]:         0         0         0         0         0         0         0         0         0         0         0         0         0         0         0         0 
dram[44]:         0         0         0         0         0         0         0         0         0         0         0         0         0         0         0         0 
dram[45]:         0         0         0         0         0         0         0         0         0         0         0         0         0         0         0         0 
dram[46]:         0         0         0         0         0         0         0         0         0         0         0         0         0         0         0         0 
dram[47]:         0         0         0         0         0         0         0         0         0         0         0         0         0         0         0         0 
dram[48]:         0         0         0         0         0         0         0         0         0         0         0         0         0         0         0         0 
dram[49]:         0         0         0         0         0         0         0         0         0         0         0         0         0         0         0         0 
dram[50]:         0         0         0         0         0         0         0         0         0         0         0         0         0         0         0         0 
dram[51]:         0         0         0         0         0         0         0         0         0         0         0         0         0         0         0         0 
dram[52]:         0         0         0         0         0         0         0         0         0         0         0         0         0         0         0         0 
dram[53]:         0         0         0         0         0         0         0         0         0         0         0         0         0         0         0         0 
dram[54]:         0         0         0         0         0         0         0         0         0         0         0         0         0         0         0         0 
dram[55]:         0         0         0         0         0         0         0         0         0         0         0         0         0         0         0         0 
dram[56]:         0         0         0         0         0         0         0         0         0         0         0         0         0         0         0         0 
dram[57]:         0         0         0         0         0         0         0         0         0         0         0         0         0         0         0         0 
dram[58]:         0         0         0         0         0         0         0         0         0         0         0         0         0         0         0         0 
dram[59]:         0         0         0         0         0         0         0         0         0         0         0         0         0         0         0         0 
dram[60]:         0         0         0         0         0         0         0         0         0         0         0         0         0         0         0         0 
dram[61]:         0         0         0         0         0         0         0         0         0         0         0         0         0         0         0         0 
dram[62]:         0         0         0         0         0         0         0         0         0         0         0         0         0         0         0         0 
dram[63]:         0         0         0         0         0         0         0         0         0         0         0         0         0         0         0         0 
dram[64]:         0         0         0         0         0         0         0         0         0         0         0         0         0         0         0         0 
dram[65]:         0         0         0         0         0         0         0         0         0         0         0         0         0         0         0         0 
dram[66]:         0         0         0         0         0         0         0         0         0         0         0         0         0         0         0         0 
dram[67]:         0         0         0         0         0         0         0         0         0         0         0         0         0         0         0         0 
dram[68]:         0         0         0         0         0         0         0         0         0         0         0         0         0         0         0         0 
dram[69]:         0         0         0         0         0         0         0         0         0         0         0         0         0         0         0         0 
dram[70]:         0         0         0         0         0         0         0         0         0         0         0         0         0         0         0         0 
dram[71]:         0         0         0         0         0         0         0         0         0         0         0         0         0         0         0         0 
dram[72]:         0         0         0         0         0         0         0         0         0         0         0         0         0         0         0         0 
dram[73]:         0         0         0         0         0         0         0         0         0         0         0         0         0         0         0         0 
dram[74]:         0         0         0         0         0         0         0         0         0         0         0         0         0         0         0         0 
dram[75]:         0         0         0         0         0         0         0         0         0         0         0         0         0         0         0         0 
dram[76]:         0         0         0         0         0         0         0         0         0         0         0         0         0         0         0         0 
dram[77]:         0         0         0         0         0         0         0         0         0         0         0         0         0         0         0         0 
dram[78]:         0         0         0         0         0         0         0         0         0         0         0         0         0         0         0         0 
dram[79]:         0         0         0         0         0         0         0         0         0         0         0         0         0         0         0         0 
dram[80]:         0         0         0         0         0         0         0         0         0         0         0         0         0         0         0         0 
dram[81]:         0         0         0         0         0         0         0         0         0         0         0         0         0         0         0         0 
dram[82]:         0         0         0         0         0         0         0         0         0         0         0         0         0         0         0         0 
dram[83]:         0         0         0         0         0         0         0         0         0         0         0         0         0         0         0         0 
dram[84]:         0         0         0         0         0         0         0         0         0         0         0         0         0         0         0         0 
dram[85]:         0         0         0         0         0         0         0         0         0         0         0         0         0         0         0         0 
dram[86]:         0         0         0         0         0         0         0         0         0         0         0         0         0         0         0         0 
dram[87]:         0         0         0         0         0         0         0         0         0         0         0         0         0         0         0         0 
dram[88]:         0         0         0         0         0         0         0         0         0         0         0         0         0         0         0         0 
dram[89]:         0         0         0         0         0         0         0         0         0         0         0         0         0         0         0         0 
dram[90]:         0         0         0         0         0         0         0         0         0         0         0         0         0         0         0         0 
dram[91]:         0         0         0         0         0         0         0         0         0         0         0         0         0         0         0         0 
dram[92]:         0         0         0         0         0         0         0         0         0         0         0         0         0         0         0         0 
dram[93]:         0         0         0         0         0         0         0         0         0         0         0         0         0         0         0         0 
dram[94]:         0         0         0         0         0         0         0         0         0         0         0         0         0         0         0         0 
dram[95]:         0         0         0         0         0         0         0         0         0         0         0         0         0         0         0         0 
dram[96]:         0         0         0         0         0         0         0         0         0         0         0         0         0         0         0         0 
dram[97]:         0         0         0         0         0         0         0         0         0         0         0         0         0         0         0         0 
dram[98]:         0         0         0         0         0         0         0         0         0         0         0         0         0         0         0         0 
dram[99]:         0         0         0         0         0         0         0         0         0         0         0         0         0         0         0         0 
dram[100]:         0         0         0         0         0         0         0         0         0         0         0         0         0         0         0         0 
dram[101]:         0         0         0         0         0         0         0         0         0         0         0         0         0         0         0         0 
dram[102]:         0         0         0         0         0         0         0         0         0         0         0         0         0         0         0         0 
dram[103]:         0         0         0         0         0         0         0         0         0         0         0         0         0         0         0         0 
dram[104]:         0         0         0         0         0         0         0         0         0         0         0         0         0         0         0         0 
dram[105]:         0         0         0         0         0         0         0         0         0         0         0         0         0         0         0         0 
dram[106]:         0         0         0         0         0         0         0         0         0         0         0         0         0         0         0         0 
dram[107]:         0         0         0         0         0         0         0         0         0         0         0         0         0         0         0         0 
dram[108]:         0         0         0         0         0         0         0         0         0         0         0         0         0         0         0         0 
dram[109]:         0         0         0         0         0         0         0         0         0         0         0         0         0         0         0         0 
dram[110]:         0         0         0         0         0         0         0         0         0         0         0         0         0         0         0         0 
dram[111]:         0         0         0         0         0         0         0         0         0         0         0         0         0         0         0         0 
dram[112]:         0         0         0         0         0         0         0         0         0         0         0         0         0         0         0         0 
dram[113]:         0         0         0         0         0         0         0         0         0         0         0         0         0         0         0         0 
dram[114]:         0         0         0         0         0         0         0         0         0         0         0         0         0         0         0         0 
dram[115]:         0         0         0         0         0         0         0         0         0         0         0         0         0         0         0         0 
dram[116]:         0         0         0         0         0         0         0         0         0         0         0         0         0         0         0         0 
dram[117]:         0         0         0         0         0         0         0         0         0         0         0         0         0         0         0         0 
dram[118]:         0         0         0         0         0         0         0         0         0         0         0         0         0         0         0         0 
dram[119]:         0         0         0         0         0         0         0         0         0         0         0         0         0         0         0         0 
dram[120]:         0         0         0         0         0         0         0         0         0         0         0         0         0         0         0         0 
dram[121]:         0         0         0         0         0         0         0         0         0         0         0         0         0         0         0         0 
dram[122]:         0         0         0         0         0         0         0         0         0         0         0         0         0         0         0         0 
dram[123]:         0         0         0         0         0         0         0         0         0         0         0         0         0         0         0         0 
dram[124]:         0         0         0         0         0         0         0         0         0         0         0         0         0         0         0         0 
dram[125]:         0         0         0         0         0         0         0         0         0         0         0         0         0         0         0         0 
dram[126]:         0         0         0         0         0         0         0         0         0         0         0         0         0         0         0         0 
dram[127]:         0         0         0         0         0         0         0         0         0         0         0         0         0         0         0         0 
maximum service time to same row:
dram[0]:       784         0         0         0         0         0         0         0         0         0         0         0         0         0         0         0 
dram[1]:      2169         0         0         0         0         0         0         0         0         0         0         0         0         0         0         0 
dram[2]:      3563         0         0         0         0         0         0         0         0         0         0         0         0         0         0         0 
dram[3]:         0         0         0         0         0         0         0         0         0         0         0         0         0         0         0         0 
dram[4]:         0         0         0         0         0         0         0         0         0         0         0         0         0         0         0         0 
dram[5]:         0         0         0         0         0         0         0         0         0         0         0         0         0         0         0         0 
dram[6]:         0         0         0         0         0         0         0         0         0         0         0         0         0         0         0         0 
dram[7]:         0         0         0         0         0         0         0         0         0         0         0         0         0         0         0         0 
dram[8]:         0         0         0         0         0         0         0         0         0         0         0         0         0         0         0         0 
dram[9]:         0         0         0         0         0         0         0         0         0         0         0         0         0         0         0         0 
dram[10]:         0         0         0         0         0         0         0         0         0         0         0         0         0         0         0         0 
dram[11]:         0         0         0         0         0         0         0         0         0         0         0         0         0         0         0         0 
dram[12]:         0         0         0         0         0         0         0         0         0         0         0         0         0         0         0         0 
dram[13]:         0         0         0         0         0         0         0         0         0         0         0         0         0         0         0         0 
dram[14]:         0         0         0         0         0         0         0         0         0         0         0         0         0         0         0         0 
dram[15]:         0         0         0         0         0         0         0         0         0         0         0         0         0         0         0         0 
dram[16]:         0         0         0         0         0         0         0         0         0         0         0         0         0         0         0         0 
dram[17]:         0         0         0         0         0         0         0         0         0         0         0         0         0         0         0         0 
dram[18]:         0         0         0         0         0         0         0         0         0         0         0         0         0         0         0         0 
dram[19]:         0         0         0         0         0         0         0         0         0         0         0         0         0         0         0         0 
dram[20]:         0         0         0         0         0         0         0         0         0         0         0         0         0         0         0         0 
dram[21]:         0         0         0         0         0         0         0         0         0         0         0         0         0         0         0         0 
dram[22]:         0         0         0         0         0         0         0         0         0         0         0         0         0         0         0         0 
dram[23]:         0         0         0         0         0         0         0         0         0         0         0         0         0         0         0         0 
dram[24]:         0         0         0         0         0         0         0         0         0         0         0         0         0         0         0         0 
dram[25]:         0         0         0         0         0         0         0         0         0         0         0         0         0         0         0         0 
dram[26]:         0         0         0         0         0         0         0         0         0         0         0         0         0         0         0         0 
dram[27]:         0         0         0         0         0         0         0         0         0         0         0         0         0         0         0         0 
dram[28]:         0         0         0         0         0         0         0         0         0         0         0         0         0         0         0         0 
dram[29]:         0         0         0         0         0         0         0         0         0         0         0         0         0         0         0         0 
dram[30]:         0         0         0         0         0         0         0         0         0         0         0         0         0         0         0         0 
dram[31]:         0         0         0         0         0         0         0         0         0         0         0         0         0         0         0         0 
dram[32]:         0         0         0         0         0         0         0         0         0         0         0         0         0         0         0         0 
dram[33]:         0         0         0         0         0         0         0         0         0         0         0         0         0         0         0         0 
dram[34]:         0         0         0         0         0         0         0         0         0         0         0         0         0         0         0         0 
dram[35]:         0         0         0         0         0         0         0         0         0         0         0         0         0         0         0         0 
dram[36]:         0         0         0         0         0         0         0         0         0         0         0         0         0         0         0         0 
dram[37]:         0         0         0         0         0         0         0         0         0         0         0         0         0         0         0         0 
dram[38]:         0         0         0         0         0         0         0         0         0         0         0         0         0         0         0         0 
dram[39]:         0         0         0         0         0         0         0         0         0         0         0         0         0         0         0         0 
dram[40]:         0         0         0         0         0         0         0         0         0         0         0         0         0         0         0         0 
dram[41]:         0         0         0         0         0         0         0         0         0         0         0         0         0         0         0         0 
dram[42]:         0         0         0         0         0         0         0         0         0         0         0         0         0         0         0         0 
dram[43]:         0         0         0         0         0         0         0         0         0         0         0         0         0         0         0         0 
dram[44]:         0         0         0         0         0         0         0         0         0         0         0         0         0         0         0         0 
dram[45]:         0         0         0         0         0         0         0         0         0         0         0         0         0         0         0         0 
dram[46]:         0         0         0         0         0         0         0         0         0         0         0         0         0         0         0         0 
dram[47]:         0         0         0         0         0         0         0         0         0         0         0         0         0         0         0         0 
dram[48]:         0         0         0         0         0         0         0         0         0         0         0         0         0         0         0         0 
dram[49]:         0         0         0         0         0         0         0         0         0         0         0         0         0         0         0         0 
dram[50]:         0         0         0         0         0         0         0         0         0         0         0         0         0         0         0         0 
dram[51]:         0         0         0         0         0         0         0         0         0         0         0         0         0         0         0         0 
dram[52]:         0         0         0         0         0         0         0         0         0         0         0         0         0         0         0         0 
dram[53]:         0         0         0         0         0         0         0         0         0         0         0         0         0         0         0         0 
dram[54]:         0         0         0         0         0         0         0         0         0         0         0         0         0         0         0         0 
dram[55]:         0         0         0         0         0         0         0         0         0         0         0         0         0         0         0         0 
dram[56]:         0         0         0         0         0         0         0         0         0         0         0         0         0         0         0         0 
dram[57]:         0         0         0         0         0         0         0         0         0         0         0         0         0         0         0         0 
dram[58]:         0         0         0         0         0         0         0         0         0         0         0         0         0         0         0         0 
dram[59]:         0         0         0         0         0         0         0         0         0         0         0         0         0         0         0         0 
dram[60]:         0         0         0         0         0         0         0         0         0         0         0         0         0         0         0         0 
dram[61]:         0         0         0         0         0         0         0         0         0         0         0         0         0         0         0         0 
dram[62]:         0         0         0         0         0         0         0         0         0         0         0         0         0         0         0         0 
dram[63]:         0         0         0         0         0         0         0         0         0         0         0         0         0         0         0         0 
dram[64]:         0         0         0         0         0         0         0         0         0         0         0         0         0         0         0         0 
dram[65]:         0         0         0         0         0         0         0         0         0         0         0         0         0         0         0         0 
dram[66]:         0         0         0         0         0         0         0         0         0         0         0         0         0         0         0         0 
dram[67]:         0         0         0         0         0         0         0         0         0         0         0         0         0         0         0         0 
dram[68]:         0         0         0         0         0         0         0         0         0         0         0         0         0         0         0         0 
dram[69]:         0         0         0         0         0         0         0         0         0         0         0         0         0         0         0         0 
dram[70]:         0         0         0         0         0         0         0         0         0         0         0         0         0         0         0         0 
dram[71]:         0         0         0         0         0         0         0         0         0         0         0         0         0         0         0         0 
dram[72]:         0         0         0         0         0         0         0         0         0         0         0         0         0         0         0         0 
dram[73]:         0         0         0         0         0         0         0         0         0         0         0         0         0         0         0         0 
dram[74]:         0         0         0         0         0         0         0         0         0         0         0         0         0         0         0         0 
dram[75]:         0         0         0         0         0         0         0         0         0         0         0         0         0         0         0         0 
dram[76]:         0         0         0         0         0         0         0         0         0         0         0         0         0         0         0         0 
dram[77]:         0         0         0         0         0         0         0         0         0         0         0         0         0         0         0         0 
dram[78]:         0         0         0         0         0         0         0         0         0         0         0         0         0         0         0         0 
dram[79]:         0         0         0         0         0         0         0         0         0         0         0         0         0         0         0         0 
dram[80]:         0         0         0         0         0         0         0         0         0         0         0         0         0         0         0         0 
dram[81]:         0         0         0         0         0         0         0         0         0         0         0         0         0         0         0         0 
dram[82]:         0         0         0         0         0         0         0         0         0         0         0         0         0         0         0         0 
dram[83]:         0         0         0         0         0         0         0         0         0         0         0         0         0         0         0         0 
dram[84]:         0         0         0         0         0         0         0         0         0         0         0         0         0         0         0         0 
dram[85]:         0         0         0         0         0         0         0         0         0         0         0         0         0         0         0         0 
dram[86]:         0         0         0         0         0         0         0         0         0         0         0         0         0         0         0         0 
dram[87]:         0         0         0         0         0         0         0         0         0         0         0         0         0         0         0         0 
dram[88]:         0         0         0         0         0         0         0         0         0         0         0         0         0         0         0         0 
[...]
L2_cache_bank[126]: Access = 3827, Miss = 128, Miss_rate = 0.033, Pending_hits = 0, Reservation_fails = 0
L2_cache_bank[127]: Access = 3823, Miss = 128, Miss_rate = 0.033, Pending_hits = 0, Reservation_fails = 0
L2_cache_bank[128]: Access = 3823, Miss = 128, Miss_rate = 0.033, Pending_hits = 0, Reservation_fails = 0
L2_cache_bank[129]: Access = 3823, Miss = 128, Miss_rate = 0.033, Pending_hits = 0, Reservation_fails = 0
L2_cache_bank[130]: Access = 3825, Miss = 128, Miss_rate = 0.033, Pending_hits = 0, Reservation_fails = 0
L2_cache_bank[131]: Access = 3827, Miss = 128, Miss_rate = 0.033, Pending_hits = 0, Reservation_fails = 0
L2_cache_bank[132]: Access = 3824, Miss = 128, Miss_rate = 0.033, Pending_hits = 0, Reservation_fails = 0
L2_cache_bank[133]: Access = 3828, Miss = 128, Miss_rate = 0.033, Pending_hits = 0, Reservation_fails = 0
L2_cache_bank[134]: Access = 3823, Miss = 128, Miss_rate = 0.033, Pending_hits = 0, Reservation_fails = 0
L2_cache_bank[135]: Access = 3818, Miss = 128, Miss_rate = 0.034, Pending_hits = 0, Reservation_fails = 0
L2_cache_bank[136]: Access = 3825, Miss = 128, Miss_rate = 0.033, Pending_hits = 0, Reservation_fails = 0
L2_cache_bank[137]: Access = 3825, Miss = 128, Miss_rate = 0.033, Pending_hits = 0, Reservation_fails = 0
L2_cache_bank[138]: Access = 3826, Miss = 128, Miss_rate = 0.033, Pending_hits = 0, Reservation_fails = 0
L2_cache_bank[139]: Access = 3822, Miss = 128, Miss_rate = 0.033, Pending_hits = 0, Reservation_fails = 0
L2_cache_bank[140]: Access = 3824, Miss = 128, Miss_rate = 0.033, Pending_hits = 0, Reservation_fails = 0
L2_cache_bank[141]: Access = 3822, Miss = 128, Miss_rate = 0.033, Pending_hits = 0, Reservation_fails = 0
L2_cache_bank[142]: Access = 3824, Miss = 128, Miss_rate = 0.033, Pending_hits = 0, Reservation_fails = 0
L2_cache_bank[143]: Access = 3827, Miss = 128, Miss_rate = 0.033, Pending_hits = 0, Reservation_fails = 0
L2_cache_bank[144]: Access = 3817, Miss = 128, Miss_rate = 0.034, Pending_hits = 0, Reservation_fails = 0
L2_cache_bank[145]: Access = 3822, Miss = 128, Miss_rate = 0.033, Pending_hits = 0, Reservation_fails = 0
L2_cache_bank[146]: Access = 3824, Miss = 128, Miss_rate = 0.033, Pending_hits = 0, Reservation_fails = 0
L2_cache_bank[147]: Access = 3823, Miss = 128, Miss_rate = 0.033, Pending_hits = 0, Reservation_fails = 0
L2_cache_bank[148]: Access = 3825, Miss = 128, Miss_rate = 0.033, Pending_hits = 0, Reservation_fails = 0
L2_cache_bank[149]: Access = 3822, Miss = 128, Miss_rate = 0.033, Pending_hits = 0, Reservation_fails = 0
L2_cache_bank[150]: Access = 3826, Miss = 128, Miss_rate = 0.033, Pending_hits = 0, Reservation_fails = 0
L2_cache_bank[151]: Access = 3823, Miss = 128, Miss_rate = 0.033, Pending_hits = 0, Reservation_fails = 0
L2_cache_bank[152]: Access = 3823, Miss = 128, Miss_rate = 0.033, Pending_hits = 0, Reservation_fails = 0
L2_cache_bank[153]: Access = 3824, Miss = 128, Miss_rate = 0.033, Pending_hits = 0, Reservation_fails = 0
L2_cache_bank[154]: Access = 3825, Miss = 128, Miss_rate = 0.033, Pending_hits = 0, Reservation_fails = 0
L2_cache_bank[155]: Access = 3825, Miss = 128, Miss_rate = 0.033, Pending_hits = 0, Reservation_fails = 0
L2_cache_bank[156]: Access = 3826, Miss = 128, Miss_rate = 0.033, Pending_hits = 0, Reservation_fails = 0
L2_cache_bank[157]: Access = 3824, Miss = 128, Miss_rate = 0.033, Pending_hits = 0, Reservation_fails = 0
L2_cache_bank[158]: Access = 3819, Miss = 128, Miss_rate = 0.034, Pending_hits = 0, Reservation_fails = 0
L2_cache_bank[159]: Access = 3823, Miss = 128, Miss_rate = 0.033, Pending_hits = 0, Reservation_fails = 0
L2_cache_bank[160]: Access = 3825, Miss = 128, Miss_rate = 0.033, Pending_hits = 0, Reservation_fails = 0
L2_cache_bank[161]: Access = 3821, Miss = 128, Miss_rate = 0.033, Pending_hits = 0, Reservation_fails = 0
L2_cache_bank[162]: Access = 3819, Miss = 128, Miss_rate = 0.034, Pending_hits = 0, Reservation_fails = 0
L2_cache_bank[163]: Access = 3826, Miss = 128, Miss_rate = 0.033, Pending_hits = 0, Reservation_fails = 0
L2_cache_bank[164]: Access = 3822, Miss = 128, Miss_rate = 0.033, Pending_hits = 0, Reservation_fails = 0
L2_cache_bank[165]: Access = 3825, Miss = 128, Miss_rate = 0.033, Pending_hits = 0, Reservation_fails = 0
L2_cache_bank[166]: Access = 3826, Miss = 128, Miss_rate = 0.033, Pending_hits = 0, Reservation_fails = 0
L2_cache_bank[167]: Access = 3822, Miss = 128, Miss_rate = 0.033, Pending_hits = 0, Reservation_fails = 0
L2_cache_bank[168]: Access = 3823, Miss = 128, Miss_rate = 0.033, Pending_hits = 0, Reservation_fails = 0
L2_cache_bank[169]: Access = 3818, Miss = 128, Miss_rate = 0.034, Pending_hits = 0, Reservation_fails = 0
L2_cache_bank[170]: Access = 3820, Miss = 128, Miss_rate = 0.034, Pending_hits = 0, Reservation_fails = 0
L2_cache_bank[171]: Access = 3827, Miss = 128, Miss_rate = 0.033, Pending_hits = 0, Reservation_fails = 0
L2_cache_bank[172]: Access = 3819, Miss = 128, Miss_rate = 0.034, Pending_hits = 0, Reservation_fails = 0
L2_cache_bank[173]: Access = 3823, Miss = 128, Miss_rate = 0.033, Pending_hits = 0, Reservation_fails = 0
L2_cache_bank[174]: Access = 3821, Miss = 128, Miss_rate = 0.033, Pending_hits = 0, Reservation_fails = 0
L2_cache_bank[175]: Access = 3827, Miss = 128, Miss_rate = 0.033, Pending_hits = 0, Reservation_fails = 0
L2_cache_bank[176]: Access = 3824, Miss = 128, Miss_rate = 0.033, Pending_hits = 0, Reservation_fails = 0
L2_cache_bank[177]: Access = 3823, Miss = 128, Miss_rate = 0.033, Pending_hits = 0, Reservation_fails = 0
L2_cache_bank[178]: Access = 3822, Miss = 128, Miss_rate = 0.033, Pending_hits = 0, Reservation_fails = 0
L2_cache_bank[179]: Access = 3825, Miss = 128, Miss_rate = 0.033, Pending_hits = 0, Reservation_fails = 0
L2_cache_bank[180]: Access = 3822, Miss = 128, Miss_rate = 0.033, Pending_hits = 0, Reservation_fails = 0
L2_cache_bank[181]: Access = 3824, Miss = 128, Miss_rate = 0.033, Pending_hits = 0, Reservation_fails = 0
L2_cache_bank[182]: Access = 3824, Miss = 128, Miss_rate = 0.033, Pending_hits = 0, Reservation_fails = 0
L2_cache_bank[183]: Access = 3823, Miss = 128, Miss_rate = 0.033, Pending_hits = 0, Reservation_fails = 0
L2_cache_bank[184]: Access = 3821, Miss = 128, Miss_rate = 0.033, Pending_hits = 0, Reservation_fails = 0
L2_cache_bank[185]: Access = 3824, Miss = 128, Miss_rate = 0.033, Pending_hits = 0, Reservation_fails = 0
L2_cache_bank[186]: Access = 3825, Miss = 128, Miss_rate = 0.033, Pending_hits = 0, Reservation_fails = 0
L2_cache_bank[187]: Access = 3822, Miss = 128, Miss_rate = 0.033, Pending_hits = 0, Reservation_fails = 0
L2_cache_bank[188]: Access = 3818, Miss = 128, Miss_rate = 0.034, Pending_hits = 0, Reservation_fails = 0
L2_cache_bank[189]: Access = 3821, Miss = 128, Miss_rate = 0.033, Pending_hits = 0, Reservation_fails = 0
L2_cache_bank[190]: Access = 3819, Miss = 128, Miss_rate = 0.034, Pending_hits = 0, Reservation_fails = 0
L2_cache_bank[191]: Access = 3825, Miss = 128, Miss_rate = 0.033, Pending_hits = 0, Reservation_fails = 0
L2_cache_bank[192]: Access = 3817, Miss = 128, Miss_rate = 0.034, Pending_hits = 0, Reservation_fails = 0
L2_cache_bank[193]: Access = 3824, Miss = 128, Miss_rate = 0.033, Pending_hits = 0, Reservation_fails = 0
L2_cache_bank[194]: Access = 3826, Miss = 128, Miss_rate = 0.033, Pending_hits = 0, Reservation_fails = 0
L2_cache_bank[195]: Access = 3826, Miss = 128, Miss_rate = 0.033, Pending_hits = 0, Reservation_fails = 0
L2_cache_bank[196]: Access = 3822, Miss = 128, Miss_rate = 0.033, Pending_hits = 0, Reservation_fails = 0
L2_cache_bank[197]: Access = 3821, Miss = 128, Miss_rate = 0.033, Pending_hits = 0, Reservation_fails = 0
L2_cache_bank[198]: Access = 3823, Miss = 128, Miss_rate = 0.033, Pending_hits = 0, Reservation_fails = 0
L2_cache_bank[199]: Access = 3824, Miss = 128, Miss_rate = 0.033, Pending_hits = 0, Reservation_fails = 0
L2_cache_bank[200]: Access = 3825, Miss = 128, Miss_rate = 0.033, Pending_hits = 0, Reservation_fails = 0
L2_cache_bank[201]: Access = 3826, Miss = 128, Miss_rate = 0.033, Pending_hits = 0, Reservation_fails = 0
L2_cache_bank[202]: Access = 3818, Miss = 128, Miss_rate = 0.034, Pending_hits = 0, Reservation_fails = 0
L2_cache_bank[203]: Access = 3823, Miss = 128, Miss_rate = 0.033, Pending_hits = 0, Reservation_fails = 0
L2_cache_bank[204]: Access = 3824, Miss = 128, Miss_rate = 0.033, Pending_hits = 0, Reservation_fails = 0
L2_cache_bank[205]: Access = 3825, Miss = 128, Miss_rate = 0.033, Pending_hits = 0, Reservation_fails = 0
L2_cache_bank[206]: Access = 3827, Miss = 128, Miss_rate = 0.033, Pending_hits = 0, Reservation_fails = 0
L2_cache_bank[207]: Access = 3825, Miss = 128, Miss_rate = 0.033, Pending_hits = 0, Reservation_fails = 0
L2_cache_bank[208]: Access = 3819, Miss = 128, Miss_rate = 0.034, Pending_hits = 0, Reservation_fails = 0
L2_cache_bank[209]: Access = 3823, Miss = 128, Miss_rate = 0.033, Pending_hits = 0, Reservation_fails = 0
L2_cache_bank[210]: Access = 3814, Miss = 128, Miss_rate = 0.034, Pending_hits = 0, Reservation_fails = 0
L2_cache_bank[211]: Access = 3829, Miss = 128, Miss_rate = 0.033, Pending_hits = 0, Reservation_fails = 0
L2_cache_bank[212]: Access = 3818, Miss = 128, Miss_rate = 0.034, Pending_hits = 0, Reservation_fails = 0
L2_cache_bank[213]: Access = 3830, Miss = 128, Miss_rate = 0.033, Pending_hits = 0, Reservation_fails = 0
L2_cache_bank[214]: Access = 3824, Miss = 128, Miss_rate = 0.033, Pending_hits = 0, Reservation_fails = 0
L2_cache_bank[215]: Access = 3825, Miss = 128, Miss_rate = 0.033, Pending_hits = 0, Reservation_fails = 0
L2_cache_bank[216]: Access = 3820, Miss = 128, Miss_rate = 0.034, Pending_hits = 0, Reservation_fails = 0
L2_cache_bank[217]: Access = 3824, Miss = 128, Miss_rate = 0.033, Pending_hits = 0, Reservation_fails = 0
L2_cache_bank[218]: Access = 3826, Miss = 128, Miss_rate = 0.033, Pending_hits = 0, Reservation_fails = 0
L2_cache_bank[219]: Access = 3825, Miss = 128, Miss_rate = 0.033, Pending_hits = 0, Reservation_fails = 0
L2_cache_bank[220]: Access = 3822, Miss = 128, Miss_rate = 0.033, Pending_hits = 0, Reservation_fails = 0
L2_cache_bank[221]: Access = 3820, Miss = 128, Miss_rate = 0.034, Pending_hits = 0, Reservation_fails = 0
L2_cache_bank[222]: Access = 3823, Miss = 128, Miss_rate = 0.033, Pending_hits = 0, Reservation_fails = 0
L2_cache_bank[223]: Access = 3821, Miss = 128, Miss_rate = 0.033, Pending_hits = 0, Reservation_fails = 0
L2_cache_bank[224]: Access = 3826, Miss = 128, Miss_rate = 0.033, Pending_hits = 0, Reservation_fails = 0
L2_cache_bank[225]: Access = 3819, Miss = 128, Miss_rate = 0.034, Pending_hits = 0, Reservation_fails = 0
L2_cache_bank[226]: Access = 3820, Miss = 128, Miss_rate = 0.034, Pending_hits = 0, Reservation_fails = 0
L2_cache_bank[227]: Access = 3827, Miss = 128, Miss_rate = 0.033, Pending_hits = 0, Reservation_fails = 0
L2_cache_bank[228]: Access = 3823, Miss = 128, Miss_rate = 0.033, Pending_hits = 0, Reservation_fails = 0
L2_cache_bank[229]: Access = 3826, Miss = 128, Miss_rate = 0.033, Pending_hits = 0, Reservation_fails = 0
L2_cache_bank[230]: Access = 3824, Miss = 128, Miss_rate = 0.033, Pending_hits = 0, Reservation_fails = 0
L2_cache_bank[231]: Access = 3824, Miss = 128, Miss_rate = 0.033, Pending_hits = 0, Reservation_fails = 0
L2_cache_bank[232]: Access = 3820, Miss = 128, Miss_rate = 0.034, Pending_hits = 0, Reservation_fails = 0
L2_cache_bank[233]: Access = 3827, Miss = 128, Miss_rate = 0.033, Pending_hits = 0, Reservation_fails = 0
L2_cache_bank[234]: Access = 3824, Miss = 128, Miss_rate = 0.033, Pending_hits = 0, Reservation_fails = 0
L2_cache_bank[235]: Access = 3825, Miss = 128, Miss_rate = 0.033, Pending_hits = 0, Reservation_fails = 0
L2_cache_bank[236]: Access = 3828, Miss = 128, Miss_rate = 0.033, Pending_hits = 0, Reservation_fails = 0
L2_cache_bank[237]: Access = 3824, Miss = 128, Miss_rate = 0.033, Pending_hits = 0, Reservation_fails = 0
L2_cache_bank[238]: Access = 3819, Miss = 128, Miss_rate = 0.034, Pending_hits = 0, Reservation_fails = 0
L2_cache_bank[239]: Access = 3824, Miss = 128, Miss_rate = 0.033, Pending_hits = 0, Reservation_fails = 0
L2_cache_bank[240]: Access = 3823, Miss = 128, Miss_rate = 0.033, Pending_hits = 0, Reservation_fails = 0
L2_cache_bank[241]: Access = 3822, Miss = 128, Miss_rate = 0.033, Pending_hits = 0, Reservation_fails = 0
L2_cache_bank[242]: Access = 3823, Miss = 128, Miss_rate = 0.033, Pending_hits = 0, Reservation_fails = 0
L2_cache_bank[243]: Access = 3825, Miss = 128, Miss_rate = 0.033, Pending_hits = 0, Reservation_fails = 0
L2_cache_bank[244]: Access = 3822, Miss = 128, Miss_rate = 0.033, Pending_hits = 0, Reservation_fails = 0
L2_cache_bank[245]: Access = 3826, Miss = 128, Miss_rate = 0.033, Pending_hits = 0, Reservation_fails = 0
L2_cache_bank[246]: Access = 3822, Miss = 128, Miss_rate = 0.033, Pending_hits = 0, Reservation_fails = 0
L2_cache_bank[247]: Access = 3824, Miss = 128, Miss_rate = 0.033, Pending_hits = 0, Reservation_fails = 0
L2_cache_bank[248]: Access = 3823, Miss = 128, Miss_rate = 0.033, Pending_hits = 0, Reservation_fails = 0
L2_cache_bank[249]: Access = 3824, Miss = 128, Miss_rate = 0.033, Pending_hits = 0, Reservation_fails = 0
L2_cache_bank[250]: Access = 3821, Miss = 128, Miss_rate = 0.033, Pending_hits = 0, Reservation_fails = 0
L2_cache_bank[251]: Access = 3824, Miss = 128, Miss_rate = 0.033, Pending_hits = 0, Reservation_fails = 0
L2_cache_bank[252]: Access = 3820, Miss = 128, Miss_rate = 0.034, Pending_hits = 0, Reservation_fails = 0
L2_cache_bank[253]: Access = 3824, Miss = 128, Miss_rate = 0.033, Pending_hits = 0, Reservation_fails = 0
L2_cache_bank[254]: Access = 3825, Miss = 128, Miss_rate = 0.033, Pending_hits = 0, Reservation_fails = 0
L2_cache_bank[255]: Access = 3823, Miss = 128, Miss_rate = 0.033, Pending_hits = 0, Reservation_fails = 0
L2_total_cache_accesses = 980371
L2_total_cache_misses = 32810
L2_total_cache_miss_rate = 0.0335
L2_total_cache_pending_hits = 118
L2_total_cache_reservation_fails = 1168
L2_total_cache_breakdown:
	L2_cache_stats_breakdown[GLOBAL_ACC_R][HIT] = 454733
	L2_cache_stats_breakdown[GLOBAL_ACC_R][HIT_RESERVED] = 0
	L2_cache_stats_breakdown[GLOBAL_ACC_R][MISS] = 0
	L2_cache_stats_breakdown[GLOBAL_ACC_R][RESERVATION_FAIL] = 0
	L2_cache_stats_breakdown[GLOBAL_ACC_R][SECTOR_MISS] = 0
	L2_cache_stats_breakdown[LOCAL_ACC_R][HIT] = 0
	L2_cache_stats_breakdown[LOCAL_ACC_R][HIT_RESERVED] = 0
	L2_cache_stats_breakdown[LOCAL_ACC_R][MISS] = 0
	L2_cache_stats_breakdown[LOCAL_ACC_R][RESERVATION_FAIL] = 0
	L2_cache_stats_breakdown[LOCAL_ACC_R][SECTOR_MISS] = 0
	L2_cache_stats_breakdown[CONST_ACC_R][HIT] = 56
	L2_cache_stats_breakdown[CONST_ACC_R][HIT_RESERVED] = 6
	L2_cache_stats_breakdown[CONST_ACC_R][MISS] = 1
	L2_cache_stats_breakdown[CONST_ACC_R][RESERVATION_FAIL] = 162
	L2_cache_stats_breakdown[CONST_ACC_R][SECTOR_MISS] = 1
	L2_cache_stats_breakdown[TEXTURE_ACC_R][HIT] = 0
	L2_cache_stats_breakdown[TEXTURE_ACC_R][HIT_RESERVED] = 0
	L2_cache_stats_breakdown[TEXTURE_ACC_R][MISS] = 0
	L2_cache_stats_breakdown[TEXTURE_ACC_R][RESERVATION_FAIL] = 0
	L2_cache_stats_breakdown[TEXTURE_ACC_R][SECTOR_MISS] = 0
	L2_cache_stats_breakdown[GLOBAL_ACC_W][HIT] = 491526
	L2_cache_stats_breakdown[GLOBAL_ACC_W][HIT_RESERVED] = 0
	L2_cache_stats_breakdown[GLOBAL_ACC_W][MISS] = 2048
	L2_cache_stats_breakdown[GLOBAL_ACC_W][RESERVATION_FAIL] = 0
	L2_cache_stats_breakdown[GLOBAL_ACC_W][SECTOR_MISS] = 30720
	L2_cache_stats_breakdown[LOCAL_ACC_W][HIT] = 0
	L2_cache_stats_breakdown[LOCAL_ACC_W][HIT_RESERVED] = 0
	L2_cache_stats_breakdown[LOCAL_ACC_W][MISS] = 0
	L2_cache_stats_breakdown[LOCAL_ACC_W][RESERVATION_FAIL] = 0
	L2_cache_stats_breakdown[LOCAL_ACC_W][SECTOR_MISS] = 0
	L2_cache_stats_breakdown[L1_WRBK_ACC][HIT] = 0
	L2_cache_stats_breakdown[L1_WRBK_ACC][HIT_RESERVED] = 0
	L2_cache_stats_breakdown[L1_WRBK_ACC][MISS] = 0
	L2_cache_stats_breakdown[L1_WRBK_ACC][RESERVATION_FAIL] = 0
	L2_cache_stats_breakdown[L1_WRBK_ACC][SECTOR_MISS] = 0
	L2_cache_stats_breakdown[L2_WRBK_ACC][HIT] = 0
	L2_cache_stats_breakdown[L2_WRBK_ACC][HIT_RESERVED] = 0
	L2_cache_stats_breakdown[L2_WRBK_ACC][MISS] = 0
	L2_cache_stats_breakdown[L2_WRBK_ACC][RESERVATION_FAIL] = 0
	L2_cache_stats_breakdown[L2_WRBK_ACC][SECTOR_MISS] = 0
	L2_cache_stats_breakdown[INST_ACC_R][HIT] = 1128
	L2_cache_stats_breakdown[INST_ACC_R][HIT_RESERVED] = 112
	L2_cache_stats_breakdown[INST_ACC_R][MISS] = 10
	L2_cache_stats_breakdown[INST_ACC_R][RESERVATION_FAIL] = 1006
	L2_cache_stats_breakdown[INST_ACC_R][SECTOR_MISS] = 30
	L2_cache_stats_breakdown[L1_WR_ALLOC_R][HIT] = 0
	L2_cache_stats_breakdown[L1_WR_ALLOC_R][HIT_RESERVED] = 0
	L2_cache_stats_breakdown[L1_WR_ALLOC_R][MISS] = 0
	L2_cache_stats_breakdown[L1_WR_ALLOC_R][RESERVATION_FAIL] = 0
	L2_cache_stats_breakdown[L1_WR_ALLOC_R][SECTOR_MISS] = 0
	L2_cache_stats_breakdown[L2_WR_ALLOC_R][HIT] = 0
	L2_cache_stats_breakdown[L2_WR_ALLOC_R][HIT_RESERVED] = 0
	L2_cache_stats_breakdown[L2_WR_ALLOC_R][MISS] = 0
	L2_cache_stats_breakdown[L2_WR_ALLOC_R][RESERVATION_FAIL] = 0
	L2_cache_stats_breakdown[L2_WR_ALLOC_R][SECTOR_MISS] = 0
	L2_cache_stats_breakdown[GLOBAL_ACC_R][TOTAL_ACCESS] = 454733
	L2_cache_stats_breakdown[CONST_ACC_R][TOTAL_ACCESS] = 64
	L2_cache_stats_breakdown[GLOBAL_ACC_W][TOTAL_ACCESS] = 524294
	L2_cache_stats_breakdown[INST_ACC_R][TOTAL_ACCESS] = 1280
L2_total_cache_reservation_fail_breakdown:
	L2_cache_stats_fail_breakdown[CONST_ACC_R][MSHR_MERGE_ENRTY_FAIL] = 162
	L2_cache_stats_fail_breakdown[INST_ACC_R][MSHR_MERGE_ENRTY_FAIL] = 1006
L2_cache_data_port_util = 0.032
L2_cache_fill_port_util = 0.000

icnt_total_pkts_mem_to_simt=980371
icnt_total_pkts_simt_to_mem=979379
LD_mem_lat_dist  0 0 0 0 0 0 0 0 0 0 0 0 0 0 0 0 0 0 0 0 0 0 0 0 0 0 0
ST_mem_lat_dist  0 0 0 0 0 0 0 0 0 0 0 0 0 0 0 0 0 0 0 0 0 0 0 0 0 0 0
----------------------------Interconnect-DETAILS--------------------------------
Class 0:
Packet latency average = 168.28
	minimum = 5
	maximum = 560
Network latency average = 97.4174
	minimum = 5
	maximum = 316
Slowest packet = 704572
Flit latency average = 97.4174
	minimum = 5
	maximum = 316
Slowest flit = 1056834
Fragmentation average = 0
	minimum = 0
	maximum = 0
Injected packet rate average = 0.105208
	minimum = 0.0556961 (at node 226)
	maximum = 0.904863 (at node 2)
Accepted packet rate average = 0.105208
	minimum = 0.0556961 (at node 226)
	maximum = 0.90541 (at node 2)
Injected flit rate average = 0.105208
	minimum = 0.0556961 (at node 226)
	maximum = 0.904863 (at node 2)
Accepted flit rate average= 0.105208
	minimum = 0.0556961 (at node 226)
	maximum = 0.90541 (at node 2)
Injected packet length average = 1
Accepted packet length average = 1
Total in-flight flits = 0 (0 measured)
====== Overall Traffic Statistics ======
====== Traffic class 0 ======
Packet latency average = 94.5811 (2 samples)
	minimum = 5 (2 samples)
	maximum = 428.5 (2 samples)
Network latency average = 51.6781 (2 samples)
	minimum = 5 (2 samples)
	maximum = 249 (2 samples)
Flit latency average = 51.6781 (2 samples)
	minimum = 5 (2 samples)
	maximum = 249 (2 samples)
Fragmentation average = 0 (2 samples)
	minimum = 0 (2 samples)
	maximum = 0 (2 samples)
Injected packet rate average = 0.0707524 (2 samples)
	minimum = 0.037447 (2 samples)
	maximum = 0.606631 (2 samples)
Accepted packet rate average = 0.0707524 (2 samples)
	minimum = 0.037447 (2 samples)
	maximum = 0.607171 (2 samples)
Injected flit rate average = 0.0707524 (2 samples)
	minimum = 0.037447 (2 samples)
	maximum = 0.606631 (2 samples)
Accepted flit rate average = 0.0707524 (2 samples)
	minimum = 0.037447 (2 samples)
	maximum = 0.607171 (2 samples)
Injected packet size average = 1 (2 samples)
Accepted packet size average = 1 (2 samples)
Hops average = 1 (2 samples)
----------------------------END-of-Interconnect-DETAILS-------------------------


gpgpu_simulation_time = 0 days, 0 hrs, 15 min, 21 sec (921 sec)
gpgpu_simulation_rate = 175403 (inst/sec)
gpgpu_simulation_rate = 125 (cycle/sec)
Training done
GPGPU-Sim: *** exit detected ***
