

GPGPU-Sim PTX: CUDA API function "void** __cudaRegisterFatBinary(void*)" has been called.


GPGPU-Sim PTX: CUDA API function "void** cudaRegisterFatBinaryInternal(void*, gpgpu_context*)" has been called.


        *** GPGPU-Sim Simulator Version 4.0.0  [build gpgpu-sim_git-commit-ae570aee318c495ceca12bc11fbd7d7c8132a7e1_modified_5.0] ***


GPGPU-Sim PTX: simulation mode 0 (can change with PTX_SIM_MODE_FUNC environment variable:
               1=functional simulation only, 0=detailed performance simulator)
GPGPU-Sim PTX: overriding embedded ptx with ptx file (PTX_SIM_USE_PTX_FILE is set)
GPGPU-Sim: Configuration options:

-save_embedded_ptx                      0 # saves ptx files embedded in binary as <n>.ptx
-keep                                   0 # keep intermediate files created by GPGPU-Sim when interfacing with external programs
-gpgpu_ptx_save_converted_ptxplus                    0 # Saved converted ptxplus to a file
-gpgpu_occupancy_sm_number                    0 # The SM number to pass to ptxas when getting register usage for computing GPU occupancy. This parameter is required in the config.
-ptx_opcode_latency_int      4,13,4,5,145,32 # Opcode latencies for integers <ADD,MAX,MUL,MAD,DIV,SHFL>Default 1,1,19,25,145,32
-ptx_opcode_latency_fp          4,13,4,5,39 # Opcode latencies for single precision floating points <ADD,MAX,MUL,MAD,DIV>Default 1,1,1,1,30
-ptx_opcode_latency_dp         8,19,8,8,330 # Opcode latencies for double precision floating points <ADD,MAX,MUL,MAD,DIV>Default 8,8,8,8,335
-ptx_opcode_latency_sfu                   20 # Opcode latencies for SFU instructionsDefault 8
-ptx_opcode_latency_tesnor                   64 # Opcode latencies for Tensor instructionsDefault 64
-ptx_opcode_initiation_int          1,1,1,1,4,4 # Opcode initiation intervals for integers <ADD,MAX,MUL,MAD,DIV,SHFL>Default 1,1,4,4,32,4
-ptx_opcode_initiation_fp            1,2,1,1,4 # Opcode initiation intervals for single precision floating points <ADD,MAX,MUL,MAD,DIV>Default 1,1,1,1,5
-ptx_opcode_initiation_dp          1,2,1,1,130 # Opcode initiation intervals for double precision floating points <ADD,MAX,MUL,MAD,DIV>Default 8,8,8,8,130
-ptx_opcode_initiation_sfu                    4 # Opcode initiation intervals for sfu instructionsDefault 8
-ptx_opcode_initiation_tensor                   64 # Opcode initiation intervals for tensor instructionsDefault 64
-cdp_latency         7200,8000,100,12000,1600 # CDP API latency <cudaStreamCreateWithFlags, cudaGetParameterBufferV2_init_perWarp, cudaGetParameterBufferV2_perKernel, cudaLaunchDeviceV2_init_perWarp, cudaLaunchDevicV2_perKernel>Default 7200,8000,100,12000,1600
-network_mode                           1 # Interconnection network mode
-inter_config_file   config_fermi_islip.icnt # Interconnection network config file
-icnt_in_buffer_limit                   64 # in_buffer_limit
-icnt_out_buffer_limit                   64 # out_buffer_limit
-icnt_subnets                           2 # subnets
-icnt_arbiter_algo                      1 # arbiter_algo
-icnt_verbose                           0 # inct_verbose
-icnt_grant_cycles                      1 # grant_cycles
-gpgpu_ptx_use_cuobjdump                    1 # Use cuobjdump to extract ptx and sass from binaries
-gpgpu_experimental_lib_support                    0 # Try to extract code from cuda libraries [Broken because of unknown cudaGetExportTable]
-checkpoint_option                      0 #  checkpointing flag (0 = no checkpoint)
-checkpoint_kernel                      1 #  checkpointing during execution of which kernel (1- 1st kernel)
-checkpoint_CTA                         0 #  checkpointing after # of CTA (< less than total CTA)
-resume_option                          0 #  resume flag (0 = no resume)
-resume_kernel                          0 #  Resume from which kernel (1= 1st kernel)
-resume_CTA                             0 #  resume from which CTA 
-checkpoint_CTA_t                       0 #  resume from which CTA 
-checkpoint_insn_Y                      0 #  resume from which CTA 
-gpgpu_ptx_convert_to_ptxplus                    0 # Convert SASS (native ISA) to ptxplus and run ptxplus
-gpgpu_ptx_force_max_capability                   20 # Force maximum compute capability
-gpgpu_ptx_inst_debug_to_file                    0 # Dump executed instructions' debug information to file
-gpgpu_ptx_inst_debug_file       inst_debug.txt # Executed instructions' debug output file
-gpgpu_ptx_inst_debug_thread_uid                    1 # Thread UID for executed instructions' debug output
-gpgpu_simd_model                       1 # 1 = post-dominator
-gpgpu_shader_core_pipeline              2048:32 # shader core pipeline config, i.e., {<nthread>:<warpsize>}
-gpgpu_tex_cache:l1  N:16:128:24,L:R:m:N:L,T:128:4,128:2 # per-shader L1 texture cache  (READ-ONLY) config  {<nsets>:<bsize>:<assoc>,<rep>:<wr>:<alloc>:<wr_alloc>,<mshr>:<N>:<merge>,<mq>:<rf>}
-gpgpu_const_cache:l1 N:128:64:2,L:R:f:N:L,S:2:64,4 # per-shader L1 constant memory cache  (READ-ONLY) config  {<nsets>:<bsize>:<assoc>,<rep>:<wr>:<alloc>:<wr_alloc>,<mshr>:<N>:<merge>,<mq>} 
-gpgpu_cache:il1     N:8:128:4,L:R:f:N:L,S:2:48,4 # shader L1 instruction cache config  {<nsets>:<bsize>:<assoc>,<rep>:<wr>:<alloc>:<wr_alloc>,<mshr>:<N>:<merge>,<mq>} 
-gpgpu_cache:dl1     S:4:128:96,L:L:s:N:L,A:256:8,16:0,32 # per-shader L1 data cache config  {<nsets>:<bsize>:<assoc>,<rep>:<wr>:<alloc>:<wr_alloc>,<mshr>:<N>:<merge>,<mq> | none}
-gpgpu_l1_banks                         2 # The number of L1 cache banks
-gpgpu_l1_banks_byte_interleaving                   32 # l1 banks byte interleaving granularity
-gpgpu_l1_banks_hashing_function                    0 # l1 banks hashing function
-gpgpu_l1_latency                      82 # L1 Hit Latency
-gpgpu_smem_latency                    24 # smem Latency
-gpgpu_cache:dl1PrefL1 S:4:128:96,L:L:s:N:L,A:256:8,16:0,32 # per-shader L1 data cache config  {<nsets>:<bsize>:<assoc>,<rep>:<wr>:<alloc>:<wr_alloc>,<mshr>:<N>:<merge>,<mq> | none}
-gpgpu_cache:dl1PrefShared S:4:128:96,L:L:s:N:L,A:256:8,16:0,32 # per-shader L1 data cache config  {<nsets>:<bsize>:<assoc>,<rep>:<wr>:<alloc>:<wr_alloc>,<mshr>:<N>:<merge>,<mq> | none}
-gpgpu_gmem_skip_L1D                    1 # global memory access skip L1D cache (implements -Xptxas -dlcm=cg, default=no skip)
-gpgpu_perfect_mem                      0 # enable perfect memory mode (no cache miss)
-n_regfile_gating_group                    4 # group of lanes that should be read/written together)
-gpgpu_clock_gated_reg_file                    0 # enable clock gated reg file for power calculations
-gpgpu_clock_gated_lanes                    0 # enable clock gated lanes for power calculations
-gpgpu_shader_registers                65536 # Number of registers per shader core. Limits number of concurrent CTAs. (default 8192)
-gpgpu_registers_per_block                 8192 # Maximum number of registers per CTA. (default 8192)
-gpgpu_ignore_resources_limitation                    0 # gpgpu_ignore_resources_limitation (default 0)
-gpgpu_shader_cta                      32 # Maximum number of concurrent CTAs in shader (default 8)
-gpgpu_num_cta_barriers                   16 # Maximum number of named barriers per CTA (default 16)
-gpgpu_n_clusters                      28 # number of processing clusters
-gpgpu_n_cores_per_cluster                    1 # number of simd cores per cluster
-gpgpu_n_cluster_ejection_buffer_size                   32 # number of packets in ejection buffer
-gpgpu_n_ldst_response_buffer_size                    2 # number of response packets in ld/st unit ejection buffer
-gpgpu_shmem_per_block                49152 # Size of shared memory per thread block or CTA (default 48kB)
-gpgpu_shmem_size                   98304 # Size of shared memory per shader core (default 16kB)
-gpgpu_adaptive_cache_config                    0 # adaptive_cache_config
-gpgpu_shmem_sizeDefault                98304 # Size of shared memory per shader core (default 16kB)
-gpgpu_shmem_size_PrefL1                98304 # Size of shared memory per shader core (default 16kB)
-gpgpu_shmem_size_PrefShared                98304 # Size of shared memory per shader core (default 16kB)
-gpgpu_shmem_num_banks                   32 # Number of banks in the shared memory in each shader core (default 16)
-gpgpu_shmem_limited_broadcast                    0 # Limit shared memory to do one broadcast per cycle (default on)
-gpgpu_shmem_warp_parts                    1 # Number of portions a warp is divided into for shared memory bank conflict check 
-gpgpu_mem_unit_ports                    1 # The number of memory transactions allowed per core cycle
-gpgpu_shmem_warp_parts                    1 # Number of portions a warp is divided into for shared memory bank conflict check 
-gpgpu_warpdistro_shader                   -1 # Specify which shader core to collect the warp size distribution from
-gpgpu_warp_issue_shader                    0 # Specify which shader core to collect the warp issue distribution from
-gpgpu_local_mem_map                    1 # Mapping from local memory space address to simulated GPU physical address space (default = enabled)
-gpgpu_num_reg_banks                   32 # Number of register banks (default = 8)
-gpgpu_reg_bank_use_warp_id                    0 # Use warp ID in mapping registers to banks (default = off)
-gpgpu_sub_core_model                    0 # Sub Core Volta/Pascal model (default = off)
-gpgpu_enable_specialized_operand_collector                    1 # enable_specialized_operand_collector
-gpgpu_operand_collector_num_units_sp                   20 # number of collector units (default = 4)
-gpgpu_operand_collector_num_units_dp                    0 # number of collector units (default = 0)
-gpgpu_operand_collector_num_units_sfu                    4 # number of collector units (default = 4)
-gpgpu_operand_collector_num_units_int                    0 # number of collector units (default = 0)
-gpgpu_operand_collector_num_units_tensor_core                    4 # number of collector units (default = 4)
-gpgpu_operand_collector_num_units_mem                    8 # number of collector units (default = 2)
-gpgpu_operand_collector_num_units_gen                    0 # number of collector units (default = 0)
-gpgpu_operand_collector_num_in_ports_sp                    4 # number of collector unit in ports (default = 1)
-gpgpu_operand_collector_num_in_ports_dp                    0 # number of collector unit in ports (default = 0)
-gpgpu_operand_collector_num_in_ports_sfu                    1 # number of collector unit in ports (default = 1)
-gpgpu_operand_collector_num_in_ports_int                    0 # number of collector unit in ports (default = 0)
-gpgpu_operand_collector_num_in_ports_tensor_core                    1 # number of collector unit in ports (default = 1)
-gpgpu_operand_collector_num_in_ports_mem                    1 # number of collector unit in ports (default = 1)
-gpgpu_operand_collector_num_in_ports_gen                    0 # number of collector unit in ports (default = 0)
-gpgpu_operand_collector_num_out_ports_sp                    4 # number of collector unit in ports (default = 1)
-gpgpu_operand_collector_num_out_ports_dp                    0 # number of collector unit in ports (default = 0)
-gpgpu_operand_collector_num_out_ports_sfu                    1 # number of collector unit in ports (default = 1)
-gpgpu_operand_collector_num_out_ports_int                    0 # number of collector unit in ports (default = 0)
-gpgpu_operand_collector_num_out_ports_tensor_core                    1 # number of collector unit in ports (default = 1)
-gpgpu_operand_collector_num_out_ports_mem                    1 # number of collector unit in ports (default = 1)
-gpgpu_operand_collector_num_out_ports_gen                    0 # number of collector unit in ports (default = 0)
-gpgpu_coalesce_arch                   13 # Coalescing arch (GT200 = 13, Fermi = 20)
-gpgpu_num_sched_per_core                    2 # Number of warp schedulers per core
-gpgpu_max_insn_issue_per_warp                    2 # Max number of instructions that can be issued per warp in one cycle by scheduler (either 1 or 2)
-gpgpu_dual_issue_diff_exec_units                    1 # should dual issue use two different execution unit resources (Default = 1)
-gpgpu_simt_core_sim_order                    1 # Select the simulation order of cores in a cluster (0=Fix, 1=Round-Robin)
-gpgpu_pipeline_widths 4,0,0,1,1,4,0,0,1,1,6 # Pipeline widths ID_OC_SP,ID_OC_DP,ID_OC_INT,ID_OC_SFU,ID_OC_MEM,OC_EX_SP,OC_EX_DP,OC_EX_INT,OC_EX_SFU,OC_EX_MEM,EX_WB,ID_OC_TENSOR_CORE,OC_EX_TENSOR_CORE
-gpgpu_tensor_core_avail                    0 # Tensor Core Available (default=0)
-gpgpu_num_sp_units                     4 # Number of SP units (default=1)
-gpgpu_num_dp_units                     0 # Number of DP units (default=0)
-gpgpu_num_int_units                    0 # Number of INT units (default=0)
-gpgpu_num_sfu_units                    1 # Number of SF units (default=1)
-gpgpu_num_tensor_core_units                    0 # Number of tensor_core units (default=1)
-gpgpu_num_mem_units                    1 # Number if ldst units (default=1) WARNING: not hooked up to anything
-gpgpu_scheduler                      gto # Scheduler configuration: < lrr | gto | two_level_active > If two_level_active:<num_active_warps>:<inner_prioritization>:<outer_prioritization>For complete list of prioritization values see shader.h enum scheduler_prioritization_typeDefault: gto
-gpgpu_concurrent_kernel_sm                    0 # Support concurrent kernels on a SM (default = disabled)
-gpgpu_perfect_inst_const_cache                    1 # perfect inst and const cache mode, so all inst and const hits in the cache(default = disabled)
-gpgpu_inst_fetch_throughput                    8 # the number of fetched intruction per warp each cycle
-gpgpu_reg_file_port_throughput                    1 # the number ports of the register file
-tlb_size                            4096 # Number of tlb entries per SM.
-specialized_unit_1         0,4,4,4,4,BRA # specialized unit config {<enabled>,<num_units>:<latency>:<initiation>,<ID_OC_SPEC>:<OC_EX_SPEC>,<NAME>}
-specialized_unit_2         0,4,4,4,4,BRA # specialized unit config {<enabled>,<num_units>:<latency>:<initiation>,<ID_OC_SPEC>:<OC_EX_SPEC>,<NAME>}
-specialized_unit_3         0,4,4,4,4,BRA # specialized unit config {<enabled>,<num_units>:<latency>:<initiation>,<ID_OC_SPEC>:<OC_EX_SPEC>,<NAME>}
-specialized_unit_4         0,4,4,4,4,BRA # specialized unit config {<enabled>,<num_units>:<latency>:<initiation>,<ID_OC_SPEC>:<OC_EX_SPEC>,<NAME>}
-specialized_unit_5         0,4,4,4,4,BRA # specialized unit config {<enabled>,<num_units>:<latency>:<initiation>,<ID_OC_SPEC>:<OC_EX_SPEC>,<NAME>}
-specialized_unit_6         0,4,4,4,4,BRA # specialized unit config {<enabled>,<num_units>:<latency>:<initiation>,<ID_OC_SPEC>:<OC_EX_SPEC>,<NAME>}
-specialized_unit_7         0,4,4,4,4,BRA # specialized unit config {<enabled>,<num_units>:<latency>:<initiation>,<ID_OC_SPEC>:<OC_EX_SPEC>,<NAME>}
-specialized_unit_8         0,4,4,4,4,BRA # specialized unit config {<enabled>,<num_units>:<latency>:<initiation>,<ID_OC_SPEC>:<OC_EX_SPEC>,<NAME>}
-gpgpu_perf_sim_memcpy                    1 # Fill the L2 cache on memcpy
-gpgpu_simple_dram_model                    0 # simple_dram_model with fixed latency and BW
-gpgpu_dram_scheduler                    1 # 0 = fifo, 1 = FR-FCFS (defaul)
-gpgpu_dram_partition_queues          32:32:32:32 # i2$:$2d:d2$:$2i
-l2_ideal                               0 # Use a ideal L2 cache that always hit
-gpgpu_cache:dl2     S:64:128:16,L:B:m:L:P,A:256:64,16:0,32 # unified banked L2 data cache config  {<nsets>:<bsize>:<assoc>,<rep>:<wr>:<alloc>:<wr_alloc>,<mshr>:<N>:<merge>,<mq>}
-gpgpu_cache:dl2_texture_only                    0 # L2 cache used for texture only
-gpgpu_n_mem                           11 # number of memory modules (e.g. memory controllers) in gpu
-gpgpu_n_sub_partition_per_mchannel                    2 # number of memory subpartition in each memory module
-gpgpu_n_mem_per_ctrlr                    1 # number of memory chips per memory controller
-gpgpu_memlatency_stat                   14 # track and display latency statistics 0x2 enables MC, 0x4 enables queue logs
-gpgpu_frfcfs_dram_sched_queue_size                   64 # 0 = unlimited (default); # entries per chip
-gpgpu_dram_return_queue_size                  116 # 0 = unlimited (default); # entries per chip
-gpgpu_dram_buswidth                    4 # default = 4 bytes (8 bytes per cycle at DDR)
-gpgpu_dram_burst_length                    8 # Burst length of each DRAM request (default = 4 data bus cycle)
-dram_data_command_freq_ratio                    4 # Frequency ratio between DRAM data bus and command bus (default = 2 times, i.e. DDR)
-gpgpu_dram_timing_opt nbk=16:CCD=2:RRD=6:RCD=12:RAS=28:RP=12:RC=40: CL=12:WL=4:CDLR=5:WR=12:nbkgrp=1:CCDL=0:RTPL=0 # DRAM timing parameters = {nbk:tCCD:tRRD:tRCD:tRAS:tRP:tRC:CL:WL:tCDLR:tWR:nbkgrp:tCCDL:tRTPL}
-gpgpu_l2_rop_latency                  120 # ROP queue latency (default 85)
-dram_latency                         100 # DRAM latency (default 30)
-dram_dual_bus_interface                    0 # dual_bus_interface (default = 0) 
-dram_bnk_indexing_policy                    0 # dram_bnk_indexing_policy (0 = normal indexing, 1 = Xoring with the higher bits) (Default = 0)
-dram_bnkgrp_indexing_policy                    0 # dram_bnkgrp_indexing_policy (0 = take higher bits, 1 = take lower bits) (Default = 0)
-dram_seperate_write_queue_enable                    0 # Seperate_Write_Queue_Enable
-dram_write_queue_size             32:28:16 # Write_Queue_Size
-dram_elimnate_rw_turnaround                    0 # elimnate_rw_turnaround i.e set tWTR and tRTW = 0
-icnt_flit_size                        40 # icnt_flit_size
-gpgpu_mem_addr_mapping dramid@8;00000000.00000000.00000000.00000000.0000RRRR.RRRRRRRR.RBBBCCCC.BCCSSSSS # mapping memory address to dram model {dramid@<start bit>;<memory address map>}
-gpgpu_mem_addr_test                    0 # run sweep test to check address mapping for aliased address
-gpgpu_mem_address_mask                    1 # 0 = old addressing mask, 1 = new addressing mask, 2 = new add. mask + flipped bank sel and chip sel bits
-gpgpu_memory_partition_indexing                    4 # 0 = no indexing, 1 = bitwise xoring, 2 = IPoly, 3 = custom indexing
-gpuwattch_xml_file         gpuwattch.xml # GPUWattch XML file
-power_simulation_enabled                    0 # Turn on power simulator (1=On, 0=Off)
-power_per_cycle_dump                    0 # Dump detailed power output each cycle
-power_trace_enabled                    0 # produce a file for the power trace (1=On, 0=Off)
-power_trace_zlevel                     6 # Compression level of the power trace output log (0=no comp, 9=highest)
-steady_power_levels_enabled                    0 # produce a file for the steady power levels (1=On, 0=Off)
-steady_state_definition                  8:4 # allowed deviation:number of samples
-gpgpu_max_cycle                        0 # terminates gpu simulation early (0 = no limit)
-gpgpu_max_insn                         0 # terminates gpu simulation early (0 = no limit)
-gpgpu_max_cta                          0 # terminates gpu simulation early (0 = no limit)
-gpgpu_max_completed_cta                    0 # terminates gpu simulation early (0 = no limit)
-gpgpu_runtime_stat                   500 # display runtime statistics such as dram utilization {<freq>:<flag>}
-liveness_message_freq                    1 # Minimum number of seconds between simulation liveness messages (0 = always print)
-gpgpu_compute_capability_major                    7 # Major compute capability version number
-gpgpu_compute_capability_minor                    0 # Minor compute capability version number
-gpgpu_flush_l1_cache                    1 # Flush L1 cache at the end of each kernel call
-gpgpu_flush_l2_cache                    0 # Flush L2 cache at the end of each kernel call
-gpgpu_deadlock_detect                    0 # Stop the simulation at deadlock (1=on (default), 0=off)
-gpgpu_ptx_instruction_classification                    0 # if enabled will classify ptx instruction types per kernel (Max 255 kernels now)
-gpgpu_ptx_sim_mode                     0 # Select between Performance (default) or Functional simulation (1)
-gpgpu_clock_domains 1481.0:2962.0:1481.0:2750.0 # Clock Domain Frequencies in MhZ {<Core Clock>:<ICNT Clock>:<L2 Clock>:<DRAM Clock>}
-gpgpu_max_concurrent_kernel                    8 # maximum kernels that can run concurrently on GPU
-gpgpu_cflog_interval                    0 # Interval between each snapshot in control flow logger
-visualizer_enabled                     0 # Turn on visualizer output (1=On, 0=Off)
-visualizer_outputfile                 NULL # Specifies the output log file for visualizer
-visualizer_zlevel                      6 # Compression level of the visualizer output log (0=no comp, 9=highest)
-gpgpu_stack_size_limit                 1024 # GPU thread stack size
-gpgpu_heap_size_limit              8388608 # GPU malloc heap size 
-gpgpu_runtime_sync_depth_limit                    2 # GPU device runtime synchronize depth
-gpgpu_runtime_pending_launch_count_limit                 2048 # GPU device runtime pending launch count
-trace_enabled                          1 # Turn on traces
-trace_components    WARP_SCHEDULER,SCOREBOARD # comma seperated list of traces to enable. Complete list found in trace_streams.tup. Default none
-trace_sampling_core                    0 # The core which is printed using CORE_DPRINTF. Default 0
-trace_sampling_memory_partition                   -1 # The memory partition which is printed using MEMPART_DPRINTF. Default -1 (i.e. all)
-enable_ptx_file_line_stats                    1 # Turn on PTX source line statistic profiling. (1 = On)
-ptx_line_stats_filename gpgpu_inst_stats.txt # Output file for PTX source line statistics.
-gpgpu_kernel_launch_latency                    0 # Kernel launch latency in cycles. Default: 0
-gpgpu_cdp_enabled                      0 # Turn on CDP
-gpgpu_TB_launch_latency                    0 # thread block launch latency in cycles. Default: 0
-gddr_size                            1GB # Size of GDDR in MB/GB.(GLOBAL_HEAP_START, GLOBAL_HEAP_START + gddr_size) would be used for unmanged memory, (GLOBAL_HEAP_START + gddr_size, GLOBAL_HEAP_START + gddr_size*2) would be used for managed memory. 
-page_table_walk_latency                  100 # Average page table walk latency (in core cycle).
-eviction_policy                        0 # Select page eviction policy
-invalidate_clean                       0 # Should directly invalidate clean pages
-reserve_accessed_page_percent                    0 # Percentage of accessed pages reserved from eviction in hope that they will be accessed in next iteration.
-percentage_of_free_page_buffer                    0 # Percentage of free page buffer to trigger the page eviction.
-page_size                            4KB # GDDR page size, only 4KB/2MB avaliable.
-pcie_bandwidth                  16.0GB/s # PCI-e bandwidth per direction, in GB/s.
-enable_dma                             0 # Enable direct access to CPU memory
-multiply_dma_penalty                    2 # Oversubscription Multiplicative Penalty Factor for Adaptive DMA
-migrate_threshold                      8 # Access counter threshold for migrating the page from cpu to gpu
-sim_prof_enable                        1 # Enable gpgpu-sim profiler
-hardware_prefetch                      1 # Select gpgpu-sim hardware prefetcher
-hwprefetch_oversub                     1 # Select gpgpu-sim hardware prefetcher under over-subscription
-page_fault_latency                 66645 # Average fault latency (in core cycle).
-enable_accurate_simulation                    0 # Enable page fault functional simulation.
-enable_smart_runtime                    0 # Enable access pattern detection, policy engine, and adaptive memory management.
DRAM Timing Options:
nbk                                    16 # number of banks
CCD                                     2 # column to column delay
RRD                                     6 # minimal delay between activation of rows in different banks
RCD                                    12 # row to column delay
RAS                                    28 # time needed to activate row
RP                                     12 # time needed to precharge (deactivate) row
RC                                     40 # row cycle time
CDLR                                    5 # switching from write to read (changes tWTR)
WR                                     12 # last data-in to row precharge
CL                                     12 # CAS latency
WL                                      4 # Write latency
nbkgrp                                  1 # number of bank groups
CCDL                                    0 # column to column delay between accesses to different bank groups
RTPL                                    0 # read to precharge delay between accesses to different bank groups
Total number of memory sub partition = 22
addr_dec_mask[CHIP]  = 0000000000000000 	high:64 low:0
addr_dec_mask[BK]    = 0000000000007080 	high:15 low:7
addr_dec_mask[ROW]   = 000000000fff8000 	high:28 low:15
addr_dec_mask[COL]   = 0000000000000f7f 	high:12 low:0
addr_dec_mask[BURST] = 000000000000001f 	high:5 low:0
sub_partition_id_mask = 0000000000000080
GPGPU-Sim uArch: clock freqs: 1481000000.000000:2962000000.000000:1481000000.000000:2750000000.000000
GPGPU-Sim uArch: clock periods: 0.00000000067521944632:0.00000000033760972316:0.00000000067521944632:0.00000000036363636364
*** Initializing Memory Statistics ***
GPGPU-Sim uArch: interconnect node map (shaderID+MemID to icntID)
GPGPU-Sim uArch: Memory nodes ID start from index: 28
GPGPU-Sim uArch:    0   1   2   3   4   5   6
GPGPU-Sim uArch:    7   8   9  10  11  12  13
GPGPU-Sim uArch:   14  15  16  17  18  19  20
GPGPU-Sim uArch:   21  22  23  24  25  26  27
GPGPU-Sim uArch:   28  29  30  31  32  33  34
GPGPU-Sim uArch:   35  36  37  38  39  40  41
GPGPU-Sim uArch:   42  43  44  45  46  47  48
GPGPU-Sim uArch:   49
GPGPU-Sim uArch: interconnect node reverse map (icntID to shaderID+MemID)
GPGPU-Sim uArch: Memory nodes start from ID: 28
GPGPU-Sim uArch:    0   1   2   3   4   5   6
GPGPU-Sim uArch:    7   8   9  10  11  12  13
GPGPU-Sim uArch:   14  15  16  17  18  19  20
GPGPU-Sim uArch:   21  22  23  24  25  26  27
GPGPU-Sim uArch:   28  29  30  31  32  33  34
GPGPU-Sim uArch:   35  36  37  38  39  40  41
GPGPU-Sim uArch:   42  43  44  45  46  47  48
GPGPU-Sim uArch:   49
GPGPU-Sim uArch: performance model initialization complete.
GPGPU-Sim: *** simulation thread starting and spinning waiting for work ***
239eaca4a80ab9df70abe43e818e4f94  /home/tgrogers-raid/a/liu2550/merge/test/gpgpu-sim_distribution/run_test/bfs/bfs
Extracting PTX file and ptxas options    1: bfs.1.sm_20.ptx -arch=sm_20
self exe links to: /home/tgrogers-raid/a/liu2550/merge/test/gpgpu-sim_distribution/run_test/bfs/bfs
self exe links to: /home/tgrogers-raid/a/liu2550/merge/test/gpgpu-sim_distribution/run_test/bfs/bfs
8.0
GPGPU-Sim PTX: __cudaRegisterFatBinary, fat_cubin_handle = 1, filename=default
self exe links to: /home/tgrogers-raid/a/liu2550/merge/test/gpgpu-sim_distribution/run_test/bfs/bfs
Running md5sum using "md5sum /home/tgrogers-raid/a/liu2550/merge/test/gpgpu-sim_distribution/run_test/bfs/bfs "
self exe links to: /home/tgrogers-raid/a/liu2550/merge/test/gpgpu-sim_distribution/run_test/bfs/bfs
Extracting specific PTX file named bfs.1.sm_20.ptx 


GPGPU-Sim PTX: CUDA API function "void cudaRegisterFunctionInternal(void**, const char*, char*, const char*, int, uint3*, uint3*, dim3*, dim3*, gpgpu_context*)" has been called.
GPGPU-Sim PTX: __cudaRegisterFunction _Z7Kernel2PbS_S_S_i : hostFun 0x0x562eb10f3acc, fat_cubin_handle = 1
GPGPU-Sim PTX: Parsing bfs.1.sm_20.ptx
GPGPU-Sim PTX: instruction assembly for function '_Z6KernelP4NodePiPbS2_S2_S1_i'...   done.
GPGPU-Sim PTX: instruction assembly for function '_Z7Kernel2PbS_S_S_i'...   done.
GPGPU-Sim PTX: finished parsing EMBEDDED .ptx file bfs.1.sm_20.ptx


GPGPU-Sim PTX: CUDA API function "int cuda_runtime_api::load_static_globals(symbol_table*, unsigned int, unsigned int, gpgpu_t*)" has been called.
GPGPU-Sim PTX: loading globals with explicit initializers... 
GPGPU-Sim PTX: finished loading globals (0 bytes total).


GPGPU-Sim PTX: CUDA API function "int cuda_runtime_api::load_constants(symbol_table*, addr_t, gpgpu_t*)" has been called.
GPGPU-Sim PTX: loading constants with explicit initializers...  done.
GPGPU-Sim PTX: Loading PTXInfo from bfs.1.sm_20.ptx
GPGPU-Sim PTX: Kernel '_Z7Kernel2PbS_S_S_i' : regs=12, lmem=0, smem=0, cmem=68
GPGPU-Sim PTX: Kernel '_Z6KernelP4NodePiPbS2_S2_S1_i' : regs=15, lmem=0, smem=0, cmem=84


GPGPU-Sim PTX: CUDA API function "void cudaRegisterFunctionInternal(void**, const char*, char*, const char*, int, uint3*, uint3*, dim3*, dim3*, gpgpu_context*)" has been called.
GPGPU-Sim PTX: __cudaRegisterFunction _Z6KernelP4NodePiPbS2_S2_S1_i : hostFun 0x0x562eb10f3997, fat_cubin_handle = 1
Input file: ./data/SampleGraph.txt
Reading File
Read File


GPGPU-Sim PTX: CUDA API function "cudaError_t cudaMallocInternal(void**, size_t, gpgpu_context*)" has been called.
GPGPU-Sim PTX: allocating 48 bytes on GPU starting at address 0x80000000
GPGPU-Sim PTX: cudaMallocing 48 bytes starting at 0x80000000..


GPGPU-Sim PTX: CUDA API function "cudaError_t cudaMemcpyInternal(void*, const void*, size_t, cudaMemcpyKind, gpgpu_context*)" has been called.
GPGPU-Sim PTX: cudaMemcpy(): devPtr = 0x80000000
GPGPU-Sim API: Stream Manager State
GPGPU-Sim API:    stream 0 has 1 operations
GPGPU-Sim API:       0 :  stream operation memcpy host-to-device
GPGPU-Sim: ** START simulation thread (detected work) **
GPGPU-Sim API: Stream Manager State
GPGPU-Sim API:    stream 0 has 1 operations
GPGPU-Sim API:       0 :  stream operation memcpy host-to-device
GPGPU-Sim API: stream 0 performing memcpy host-to-device
GPGPU-Sim PTX: copying 48 bytes from CPU[0x562eb43f5af0] to GPU[0x80000000] ...  done.
GPGPU-Sim: ** STOP simulation thread (no work) **
GPGPU-Sim: *** simulation thread starting and spinning waiting for work ***


GPGPU-Sim PTX: CUDA API function "cudaError_t cudaMallocInternal(void**, size_t, gpgpu_context*)" has been called.
GPGPU-Sim PTX: allocating 80 bytes on GPU starting at address 0x80000100
GPGPU-Sim PTX: cudaMallocing 80 bytes starting at 0x80000100..


GPGPU-Sim PTX: CUDA API function "cudaError_t cudaMemcpyInternal(void*, const void*, size_t, cudaMemcpyKind, gpgpu_context*)" has been called.
GPGPU-Sim PTX: cudaMemcpy(): devPtr = 0x80000100
GPGPU-Sim API: Stream Manager State
GPGPU-Sim API:    stream 0 has 1 operations
GPGPU-Sim API:       0 :  stream operation memcpy host-to-device
GPGPU-Sim: ** START simulation thread (detected work) **
GPGPU-Sim API: Stream Manager State
GPGPU-Sim API:    stream 0 has 1 operations
GPGPU-Sim API:       0 :  stream operation memcpy host-to-device
GPGPU-Sim API: stream 0 performing memcpy host-to-device
GPGPU-Sim PTX: copying 80 bytes from CPU[0x562eb43f5b30] to GPU[0x80000100] ...  done.
GPGPU-Sim: ** STOP simulation thread (no work) **
GPGPU-Sim: *** simulation thread starting and spinning waiting for work ***


GPGPU-Sim PTX: CUDA API function "cudaError_t cudaMallocInternal(void**, size_t, gpgpu_context*)" has been called.
GPGPU-Sim PTX: allocating 6 bytes on GPU starting at address 0x80000200
GPGPU-Sim PTX: cudaMallocing 6 bytes starting at 0x80000200..


GPGPU-Sim PTX: CUDA API function "cudaError_t cudaMemcpyInternal(void*, const void*, size_t, cudaMemcpyKind, gpgpu_context*)" has been called.
GPGPU-Sim PTX: cudaMemcpy(): devPtr = 0x80000200
GPGPU-Sim API: Stream Manager State
GPGPU-Sim API:    stream 0 has 1 operations
GPGPU-Sim API:       0 :  stream operation memcpy host-to-device
GPGPU-Sim: ** START simulation thread (detected work) **
GPGPU-Sim API: Stream Manager State
GPGPU-Sim API:    stream 0 has 1 operations
GPGPU-Sim API:       0 :  stream operation memcpy host-to-device
GPGPU-Sim API: stream 0 performing memcpy host-to-device
GPGPU-Sim PTX: copying 6 bytes from CPU[0x562eb43e3780] to GPU[0x80000200] ...  done.
GPGPU-Sim: ** STOP simulation thread (no work) **
GPGPU-Sim: *** simulation thread starting and spinning waiting for work ***


GPGPU-Sim PTX: CUDA API function "cudaError_t cudaMallocInternal(void**, size_t, gpgpu_context*)" has been called.
GPGPU-Sim PTX: allocating 6 bytes on GPU starting at address 0x80000300
GPGPU-Sim PTX: cudaMallocing 6 bytes starting at 0x80000300..


GPGPU-Sim PTX: CUDA API function "cudaError_t cudaMemcpyInternal(void*, const void*, size_t, cudaMemcpyKind, gpgpu_context*)" has been called.
GPGPU-Sim PTX: cudaMemcpy(): devPtr = 0x80000300
GPGPU-Sim API: Stream Manager State
GPGPU-Sim API:    stream 0 has 1 operations
GPGPU-Sim API:       0 :  stream operation memcpy host-to-device
GPGPU-Sim: ** START simulation thread (detected work) **
GPGPU-Sim API: Stream Manager State
GPGPU-Sim API:    stream 0 has 1 operations
GPGPU-Sim API:       0 :  stream operation memcpy host-to-device
GPGPU-Sim API: stream 0 performing memcpy host-to-device
GPGPU-Sim PTX: copying 6 bytes from CPU[0x562eb43ea8b0] to GPU[0x80000300] ...  done.
GPGPU-Sim: ** STOP simulation thread (no work) **
GPGPU-Sim: *** simulation thread starting and spinning waiting for work ***


GPGPU-Sim PTX: CUDA API function "cudaError_t cudaMallocInternal(void**, size_t, gpgpu_context*)" has been called.
GPGPU-Sim PTX: allocating 6 bytes on GPU starting at address 0x80000400
GPGPU-Sim PTX: cudaMallocing 6 bytes starting at 0x80000400..


GPGPU-Sim PTX: CUDA API function "cudaError_t cudaMemcpyInternal(void*, const void*, size_t, cudaMemcpyKind, gpgpu_context*)" has been called.
GPGPU-Sim PTX: cudaMemcpy(): devPtr = 0x80000400
GPGPU-Sim API: Stream Manager State
GPGPU-Sim API:    stream 0 has 1 operations
GPGPU-Sim API:       0 :  stream operation memcpy host-to-device
GPGPU-Sim: ** START simulation thread (detected work) **
GPGPU-Sim API: Stream Manager State
GPGPU-Sim API:    stream 0 has 1 operations
GPGPU-Sim API:       0 :  stream operation memcpy host-to-device
GPGPU-Sim API: stream 0 performing memcpy host-to-device
GPGPU-Sim PTX: copying 6 bytes from CPU[0x562eb43e9730] to GPU[0x80000400] ...  done.
GPGPU-Sim: ** STOP simulation thread (no work) **
GPGPU-Sim: *** simulation thread starting and spinning waiting for work ***


GPGPU-Sim PTX: CUDA API function "cudaError_t cudaMallocInternal(void**, size_t, gpgpu_context*)" has been called.
GPGPU-Sim PTX: allocating 24 bytes on GPU starting at address 0x80000500
GPGPU-Sim PTX: cudaMallocing 24 bytes starting at 0x80000500..


GPGPU-Sim PTX: CUDA API function "cudaError_t cudaMemcpyInternal(void*, const void*, size_t, cudaMemcpyKind, gpgpu_context*)" has been called.
GPGPU-Sim PTX: cudaMemcpy(): devPtr = 0x80000500
GPGPU-Sim API: Stream Manager State
GPGPU-Sim API:    stream 0 has 1 operations
GPGPU-Sim API:       0 :  stream operation memcpy host-to-device
GPGPU-Sim: ** START simulation thread (detected work) **
GPGPU-Sim API: Stream Manager State
GPGPU-Sim API:    stream 0 has 1 operations
GPGPU-Sim API:       0 :  stream operation memcpy host-to-device
GPGPU-Sim API: stream 0 performing memcpy host-to-device
GPGPU-Sim PTX: copying 24 bytes from CPU[0x562eb44053e0] to GPU[0x80000500] ...  done.
GPGPU-Sim: ** STOP simulation thread (no work) **
GPGPU-Sim: *** simulation thread starting and spinning waiting for work ***


GPGPU-Sim PTX: CUDA API function "cudaError_t cudaMallocInternal(void**, size_t, gpgpu_context*)" has been called.
GPGPU-Sim PTX: allocating 1 bytes on GPU starting at address 0x80000600
GPGPU-Sim PTX: cudaMallocing 1 bytes starting at 0x80000600..
Copied Everything to GPU memory


GPGPU-Sim PTX: CUDA API function "cudaError_t cudaMemcpyInternal(void*, const void*, size_t, cudaMemcpyKind, gpgpu_context*)" has been called.
GPGPU-Sim PTX: cudaMemcpy(): devPtr = 0x80000600
GPGPU-Sim API: Stream Manager State
GPGPU-Sim API:    stream 0 has 1 operations
GPGPU-Sim API:       0 :  stream operation memcpy host-to-device
GPGPU-Sim: ** START simulation thread (detected work) **
GPGPU-Sim API: Stream Manager State
GPGPU-Sim API:    stream 0 has 1 operations
GPGPU-Sim API:       0 :  stream operation memcpy host-to-device
GPGPU-Sim API: stream 0 performing memcpy host-to-device
GPGPU-Sim PTX: copying 1 bytes from CPU[0x7fffe8ffffeb] to GPU[0x80000600] ...  done.
GPGPU-Sim: ** STOP simulation thread (no work) **
GPGPU-Sim: *** simulation thread starting and spinning waiting for work ***


GPGPU-Sim PTX: CUDA API function "cudaError_t cudaConfigureCallInternal(dim3, dim3, size_t, cudaStream_t, gpgpu_context*)" has been called.


GPGPU-Sim PTX: CUDA API function "cudaError_t cudaSetupArgumentInternal(const void*, size_t, size_t, gpgpu_context*)" has been called.
GPGPU-Sim PTX: Setting up arguments for 8 bytes starting at 0x7fffe8ffff58..


GPGPU-Sim PTX: CUDA API function "cudaError_t cudaSetupArgumentInternal(const void*, size_t, size_t, gpgpu_context*)" has been called.
GPGPU-Sim PTX: Setting up arguments for 8 bytes starting at 0x7fffe8ffff50..


GPGPU-Sim PTX: CUDA API function "cudaError_t cudaSetupArgumentInternal(const void*, size_t, size_t, gpgpu_context*)" has been called.
GPGPU-Sim PTX: Setting up arguments for 8 bytes starting at 0x7fffe8ffff48..


GPGPU-Sim PTX: CUDA API function "cudaError_t cudaSetupArgumentInternal(const void*, size_t, size_t, gpgpu_context*)" has been called.
GPGPU-Sim PTX: Setting up arguments for 8 bytes starting at 0x7fffe8ffff40..


GPGPU-Sim PTX: CUDA API function "cudaError_t cudaSetupArgumentInternal(const void*, size_t, size_t, gpgpu_context*)" has been called.
GPGPU-Sim PTX: Setting up arguments for 8 bytes starting at 0x7fffe8ffff38..


GPGPU-Sim PTX: CUDA API function "cudaError_t cudaSetupArgumentInternal(const void*, size_t, size_t, gpgpu_context*)" has been called.
GPGPU-Sim PTX: Setting up arguments for 8 bytes starting at 0x7fffe8ffff30..


GPGPU-Sim PTX: CUDA API function "cudaError_t cudaSetupArgumentInternal(const void*, size_t, size_t, gpgpu_context*)" has been called.
GPGPU-Sim PTX: Setting up arguments for 4 bytes starting at 0x7fffe8ffff70..


GPGPU-Sim PTX: CUDA API function "cudaError_t cudaLaunchInternal(const char*, gpgpu_context*)" has been called.

GPGPU-Sim PTX: cudaLaunch for 0x0x562eb10f3997 (mode=performance simulation) on stream 0


GPGPU-Sim PTX: CUDA API function "kernel_info_t* cuda_runtime_api::gpgpu_cuda_ptx_sim_init_grid(const char*, gpgpu_ptx_sim_arg_list_t, dim3, dim3, CUctx_st*, const gpgpu_sim_config&)" has been called.
GPGPU-Sim PTX: finding reconvergence points for '_Z6KernelP4NodePiPbS2_S2_S1_i'...
GPGPU-Sim PTX: Finding dominators for '_Z6KernelP4NodePiPbS2_S2_S1_i'...
GPGPU-Sim PTX: Finding immediate dominators for '_Z6KernelP4NodePiPbS2_S2_S1_i'...
Printing dominators for function '_Z6KernelP4NodePiPbS2_S2_S1_i':
ID: 0	: 0
ID: 1	: 0 1
ID: 2	: 0 1 2
ID: 3	: 0 1 2 3
ID: 4	: 0 1 2 3 4
ID: 5	: 0 1 2 3 4 5
ID: 6	: 0 1 2 3 4 6
ID: 7	: 0 7
ID: 8	: 0 7 8
GPGPU-Sim PTX: Finding postdominators for '_Z6KernelP4NodePiPbS2_S2_S1_i'...
GPGPU-Sim PTX: Finding immediate postdominators for '_Z6KernelP4NodePiPbS2_S2_S1_i'...
GPGPU-Sim PTX: pre-decoding instructions for '_Z6KernelP4NodePiPbS2_S2_S1_i'...
GPGPU-Sim PTX: reconvergence points for _Z6KernelP4NodePiPbS2_S2_S1_i...
GPGPU-Sim PTX:  1 (potential) branch divergence @  PC=0x060 (bfs.1.sm_20.ptx:43) @%p1 bra BB0_7;
GPGPU-Sim PTX:    immediate post dominator      @  PC=0x1e8 (bfs.1.sm_20.ptx:102) ret;
GPGPU-Sim PTX:  2 (potential) branch divergence @  PC=0x090 (bfs.1.sm_20.ptx:50) @%p2 bra BB0_7;
GPGPU-Sim PTX:    immediate post dominator      @  PC=0x1e8 (bfs.1.sm_20.ptx:102) ret;
GPGPU-Sim PTX:  3 (potential) branch divergence @  PC=0x0d8 (bfs.1.sm_20.ptx:60) @%p3 bra BB0_7;
GPGPU-Sim PTX:    immediate post dominator      @  PC=0x1e8 (bfs.1.sm_20.ptx:102) ret;
GPGPU-Sim PTX:  4 (potential) branch divergence @  PC=0x160 (bfs.1.sm_20.ptx:80) @%p4 bra BB0_6;
GPGPU-Sim PTX:    immediate post dominator      @  PC=0x1b8 (bfs.1.sm_20.ptx:94) mov.u32 %r24, %r25;
GPGPU-Sim PTX:  5 (potential) branch divergence @  PC=0x1e0 (bfs.1.sm_20.ptx:99) @%p5 bra BB0_4;
GPGPU-Sim PTX:    immediate post dominator      @  PC=0x1e8 (bfs.1.sm_20.ptx:102) ret;
GPGPU-Sim PTX: ... end of reconvergence points for _Z6KernelP4NodePiPbS2_S2_S1_i
GPGPU-Sim PTX: ... done pre-decoding instructions for '_Z6KernelP4NodePiPbS2_S2_S1_i'.
GPGPU-Sim PTX: pushing kernel '_Z6KernelP4NodePiPbS2_S2_S1_i' to stream 0, gridDim= (1,1,1) blockDim = (6,1,1) 
GPGPU-Sim API: Stream Manager State
GPGPU-Sim API:    stream 0 has 1 operations
GPGPU-Sim API:       0 :  stream operation kernel
GPGPU-Sim: ** START simulation thread (detected work) **
GPGPU-Sim API: Stream Manager State
GPGPU-Sim API:    stream 0 has 1 operations
GPGPU-Sim API:       0 :  stream operation kernel
GPGPU-Sim API: stream 0 performing kernel 1: '_Z6KernelP4NodePiPbS2_S2_S1_i' transfer to GPU hardware scheduler
GPGPU-Sim uArch: Shader 0 bind to kernel 1 '_Z6KernelP4NodePiPbS2_S2_S1_i'
GPGPU-Sim uArch: CTA/core = 32, limited by: cta_limit
  <CTA alloc> : sm_idx=0 sid=0 max_cta_per_sm=341
GPGPU-Sim Cycle 17753: WARP_SCHEDULER - Core 0 - Scheduler 0 - scheduler_unit::cycle()
GPGPU-Sim Cycle 17753: WARP_SCHEDULER - Core 0 - Scheduler 0 - Testing (warp_id 0, dynamic_warp_id 0)
GPGPU-Sim Cycle 17753: WARP_SCHEDULER - Core 0 - Scheduler 0 - Warp (warp_id 0, dynamic_warp_id 0) fails as ibuffer_empty
GPGPU-Sim Cycle 17753: WARP_SCHEDULER - Core 0 - Scheduler 1 - scheduler_unit::cycle()
GPGPU-Sim Cycle 17754: WARP_SCHEDULER - Core 0 - Scheduler 1 - scheduler_unit::cycle()
GPGPU-Sim Cycle 17754: WARP_SCHEDULER - Core 0 - Scheduler 0 - scheduler_unit::cycle()
GPGPU-Sim Cycle 17754: WARP_SCHEDULER - Core 0 - Scheduler 0 - Testing (warp_id 0, dynamic_warp_id 0)
GPGPU-Sim Cycle 17754: WARP_SCHEDULER - Core 0 - Scheduler 0 - Warp (warp_id 0, dynamic_warp_id 0) has valid instruction ( PC=0x000 (bfs.1.sm_20.ptx:31) ld.param.u64 %rd10, [_Z6KernelP4NodePiPbS2_S2_S1_i_param_0];)
GPGPU-Sim Cycle 17754: WARP_SCHEDULER - Core 0 - Scheduler 0 - Warp (warp_id 0, dynamic_warp_id 0) passes scoreboard
GPGPU-Sim Cycle 17754: SCOREBOARD - Core 0 - Reserved Register - warp:0, reg: 48
GPGPU-Sim Cycle 17754: SCOREBOARD - Core 0 - Reserved register - warp:0, reg: 48
GPGPU-Sim Cycle 17754: SCOREBOARD - Core 0 - New longopreg marked - warp:0, reg: 48
GPGPU-Sim Cycle 17754: WARP_SCHEDULER - Core 0 - Scheduler 0 - Warp (warp_id 0, dynamic_warp_id 0) issued 1 instructions
GPGPU-Sim Cycle 17754: WARP_SCHEDULER - Core 0 - Scheduler 0 - Warp (warp_id 0, dynamic_warp_id 0) has valid instruction ( PC=0x008 (bfs.1.sm_20.ptx:32) ld.param.u64 %rd11, [_Z6KernelP4NodePiPbS2_S2_S1_i_param_1];)
GPGPU-Sim Cycle 17754: WARP_SCHEDULER - Core 0 - Scheduler 0 - Warp (warp_id 0, dynamic_warp_id 0) passes scoreboard
GPGPU-Sim Cycle 17755: WARP_SCHEDULER - Core 0 - Scheduler 0 - scheduler_unit::cycle()
GPGPU-Sim Cycle 17755: WARP_SCHEDULER - Core 0 - Scheduler 0 - Testing (warp_id 0, dynamic_warp_id 0)
GPGPU-Sim Cycle 17755: WARP_SCHEDULER - Core 0 - Scheduler 0 - Warp (warp_id 0, dynamic_warp_id 0) has valid instruction ( PC=0x008 (bfs.1.sm_20.ptx:32) ld.param.u64 %rd11, [_Z6KernelP4NodePiPbS2_S2_S1_i_param_1];)
GPGPU-Sim Cycle 17755: WARP_SCHEDULER - Core 0 - Scheduler 0 - Warp (warp_id 0, dynamic_warp_id 0) passes scoreboard
GPGPU-Sim Cycle 17755: SCOREBOARD - Core 0 - Reserved Register - warp:0, reg: 49
GPGPU-Sim Cycle 17755: SCOREBOARD - Core 0 - Reserved register - warp:0, reg: 49
GPGPU-Sim Cycle 17755: SCOREBOARD - Core 0 - New longopreg marked - warp:0, reg: 49
GPGPU-Sim Cycle 17755: WARP_SCHEDULER - Core 0 - Scheduler 0 - Warp (warp_id 0, dynamic_warp_id 0) issued 1 instructions
GPGPU-Sim Cycle 17755: WARP_SCHEDULER - Core 0 - Scheduler 1 - scheduler_unit::cycle()
GPGPU-Sim Cycle 17756: WARP_SCHEDULER - Core 0 - Scheduler 1 - scheduler_unit::cycle()
GPGPU-Sim Cycle 17756: WARP_SCHEDULER - Core 0 - Scheduler 0 - scheduler_unit::cycle()
GPGPU-Sim Cycle 17756: WARP_SCHEDULER - Core 0 - Scheduler 0 - Testing (warp_id 0, dynamic_warp_id 0)
GPGPU-Sim Cycle 17756: WARP_SCHEDULER - Core 0 - Scheduler 0 - Warp (warp_id 0, dynamic_warp_id 0) has valid instruction ( PC=0x010 (bfs.1.sm_20.ptx:33) ld.param.u64 %rd12, [_Z6KernelP4NodePiPbS2_S2_S1_i_param_2];)
GPGPU-Sim Cycle 17756: WARP_SCHEDULER - Core 0 - Scheduler 0 - Warp (warp_id 0, dynamic_warp_id 0) passes scoreboard
GPGPU-Sim Cycle 17756: SCOREBOARD - Core 0 - Reserved Register - warp:0, reg: 50
GPGPU-Sim Cycle 17756: SCOREBOARD - Core 0 - Reserved register - warp:0, reg: 50
GPGPU-Sim Cycle 17756: SCOREBOARD - Core 0 - New longopreg marked - warp:0, reg: 50
GPGPU-Sim Cycle 17756: WARP_SCHEDULER - Core 0 - Scheduler 0 - Warp (warp_id 0, dynamic_warp_id 0) issued 1 instructions
GPGPU-Sim Cycle 17756: WARP_SCHEDULER - Core 0 - Scheduler 0 - Warp (warp_id 0, dynamic_warp_id 0) has valid instruction ( PC=0x018 (bfs.1.sm_20.ptx:34) ld.param.u64 %rd13, [_Z6KernelP4NodePiPbS2_S2_S1_i_param_3];)
GPGPU-Sim Cycle 17756: WARP_SCHEDULER - Core 0 - Scheduler 0 - Warp (warp_id 0, dynamic_warp_id 0) passes scoreboard
GPGPU-Sim Cycle 17757: SCOREBOARD - Core 0 - Register Released - warp:0, reg: 48
GPGPU-Sim Cycle 17757: SCOREBOARD - Core 0 - Release register - warp:0, reg: 48
GPGPU-Sim Cycle 17757: WARP_SCHEDULER - Core 0 - Scheduler 0 - scheduler_unit::cycle()
GPGPU-Sim Cycle 17757: WARP_SCHEDULER - Core 0 - Scheduler 0 - Testing (warp_id 0, dynamic_warp_id 0)
GPGPU-Sim Cycle 17757: WARP_SCHEDULER - Core 0 - Scheduler 0 - Warp (warp_id 0, dynamic_warp_id 0) has valid instruction ( PC=0x018 (bfs.1.sm_20.ptx:34) ld.param.u64 %rd13, [_Z6KernelP4NodePiPbS2_S2_S1_i_param_3];)
GPGPU-Sim Cycle 17757: WARP_SCHEDULER - Core 0 - Scheduler 0 - Warp (warp_id 0, dynamic_warp_id 0) passes scoreboard
GPGPU-Sim Cycle 17757: SCOREBOARD - Core 0 - Reserved Register - warp:0, reg: 51
GPGPU-Sim Cycle 17757: SCOREBOARD - Core 0 - Reserved register - warp:0, reg: 51
GPGPU-Sim Cycle 17757: SCOREBOARD - Core 0 - New longopreg marked - warp:0, reg: 51
GPGPU-Sim Cycle 17757: WARP_SCHEDULER - Core 0 - Scheduler 0 - Warp (warp_id 0, dynamic_warp_id 0) issued 1 instructions
GPGPU-Sim Cycle 17757: WARP_SCHEDULER - Core 0 - Scheduler 1 - scheduler_unit::cycle()
GPGPU-Sim Cycle 17758: SCOREBOARD - Core 0 - Register Released - warp:0, reg: 49
GPGPU-Sim Cycle 17758: SCOREBOARD - Core 0 - Release register - warp:0, reg: 49
GPGPU-Sim Cycle 17758: WARP_SCHEDULER - Core 0 - Scheduler 1 - scheduler_unit::cycle()
GPGPU-Sim Cycle 17758: WARP_SCHEDULER - Core 0 - Scheduler 0 - scheduler_unit::cycle()
GPGPU-Sim Cycle 17758: WARP_SCHEDULER - Core 0 - Scheduler 0 - Testing (warp_id 0, dynamic_warp_id 0)
GPGPU-Sim Cycle 17758: WARP_SCHEDULER - Core 0 - Scheduler 0 - Warp (warp_id 0, dynamic_warp_id 0) has valid instruction ( PC=0x020 (bfs.1.sm_20.ptx:35) ld.param.u64 %rd14, [_Z6KernelP4NodePiPbS2_S2_S1_i_param_4];)
GPGPU-Sim Cycle 17758: WARP_SCHEDULER - Core 0 - Scheduler 0 - Warp (warp_id 0, dynamic_warp_id 0) passes scoreboard
GPGPU-Sim Cycle 17758: SCOREBOARD - Core 0 - Reserved Register - warp:0, reg: 52
GPGPU-Sim Cycle 17758: SCOREBOARD - Core 0 - Reserved register - warp:0, reg: 52
GPGPU-Sim Cycle 17758: SCOREBOARD - Core 0 - New longopreg marked - warp:0, reg: 52
GPGPU-Sim Cycle 17758: WARP_SCHEDULER - Core 0 - Scheduler 0 - Warp (warp_id 0, dynamic_warp_id 0) issued 1 instructions
GPGPU-Sim Cycle 17758: WARP_SCHEDULER - Core 0 - Scheduler 0 - Warp (warp_id 0, dynamic_warp_id 0) has valid instruction ( PC=0x028 (bfs.1.sm_20.ptx:36) ld.param.u64 %rd15, [_Z6KernelP4NodePiPbS2_S2_S1_i_param_5];)
GPGPU-Sim Cycle 17758: WARP_SCHEDULER - Core 0 - Scheduler 0 - Warp (warp_id 0, dynamic_warp_id 0) passes scoreboard
GPGPU-Sim Cycle 17759: SCOREBOARD - Core 0 - Register Released - warp:0, reg: 50
GPGPU-Sim Cycle 17759: SCOREBOARD - Core 0 - Release register - warp:0, reg: 50
GPGPU-Sim Cycle 17759: WARP_SCHEDULER - Core 0 - Scheduler 0 - scheduler_unit::cycle()
GPGPU-Sim Cycle 17759: WARP_SCHEDULER - Core 0 - Scheduler 0 - Testing (warp_id 0, dynamic_warp_id 0)
GPGPU-Sim Cycle 17759: WARP_SCHEDULER - Core 0 - Scheduler 0 - Warp (warp_id 0, dynamic_warp_id 0) has valid instruction ( PC=0x028 (bfs.1.sm_20.ptx:36) ld.param.u64 %rd15, [_Z6KernelP4NodePiPbS2_S2_S1_i_param_5];)
GPGPU-Sim Cycle 17759: WARP_SCHEDULER - Core 0 - Scheduler 0 - Warp (warp_id 0, dynamic_warp_id 0) passes scoreboard
GPGPU-Sim Cycle 17759: SCOREBOARD - Core 0 - Reserved Register - warp:0, reg: 53
GPGPU-Sim Cycle 17759: SCOREBOARD - Core 0 - Reserved register - warp:0, reg: 53
GPGPU-Sim Cycle 17759: SCOREBOARD - Core 0 - New longopreg marked - warp:0, reg: 53
GPGPU-Sim Cycle 17759: WARP_SCHEDULER - Core 0 - Scheduler 0 - Warp (warp_id 0, dynamic_warp_id 0) issued 1 instructions
GPGPU-Sim Cycle 17759: WARP_SCHEDULER - Core 0 - Scheduler 1 - scheduler_unit::cycle()
GPGPU-Sim Cycle 17760: SCOREBOARD - Core 0 - Register Released - warp:0, reg: 51
GPGPU-Sim Cycle 17760: SCOREBOARD - Core 0 - Release register - warp:0, reg: 51
GPGPU-Sim Cycle 17760: WARP_SCHEDULER - Core 0 - Scheduler 1 - scheduler_unit::cycle()
GPGPU-Sim Cycle 17760: WARP_SCHEDULER - Core 0 - Scheduler 0 - scheduler_unit::cycle()
GPGPU-Sim Cycle 17760: WARP_SCHEDULER - Core 0 - Scheduler 0 - Testing (warp_id 0, dynamic_warp_id 0)
GPGPU-Sim Cycle 17760: WARP_SCHEDULER - Core 0 - Scheduler 0 - Warp (warp_id 0, dynamic_warp_id 0) has valid instruction ( PC=0x030 (bfs.1.sm_20.ptx:37) ld.param.u32 %r12, [_Z6KernelP4NodePiPbS2_S2_S1_i_param_6];)
GPGPU-Sim Cycle 17760: WARP_SCHEDULER - Core 0 - Scheduler 0 - Warp (warp_id 0, dynamic_warp_id 0) passes scoreboard
GPGPU-Sim Cycle 17760: SCOREBOARD - Core 0 - Reserved Register - warp:0, reg: 24
GPGPU-Sim Cycle 17760: SCOREBOARD - Core 0 - Reserved register - warp:0, reg: 24
GPGPU-Sim Cycle 17760: SCOREBOARD - Core 0 - New longopreg marked - warp:0, reg: 24
GPGPU-Sim Cycle 17760: WARP_SCHEDULER - Core 0 - Scheduler 0 - Warp (warp_id 0, dynamic_warp_id 0) issued 1 instructions
GPGPU-Sim Cycle 17760: WARP_SCHEDULER - Core 0 - Scheduler 0 - Warp (warp_id 0, dynamic_warp_id 0) has valid instruction ( PC=0x038 (bfs.1.sm_20.ptx:38) mov.u32 %r13, %ctaid.x;)
GPGPU-Sim Cycle 17760: WARP_SCHEDULER - Core 0 - Scheduler 0 - Warp (warp_id 0, dynamic_warp_id 0) passes scoreboard
GPGPU-Sim Cycle 17760: SCOREBOARD - Core 0 - Reserved Register - warp:0, reg: 25
GPGPU-Sim Cycle 17760: SCOREBOARD - Core 0 - Reserved register - warp:0, reg: 25
GPGPU-Sim Cycle 17760: WARP_SCHEDULER - Core 0 - Scheduler 0 - Warp (warp_id 0, dynamic_warp_id 0) issued 2 instructions
GPGPU-Sim Cycle 17761: SCOREBOARD - Core 0 - Register Released - warp:0, reg: 52
GPGPU-Sim Cycle 17761: SCOREBOARD - Core 0 - Release register - warp:0, reg: 52
GPGPU-Sim Cycle 17761: WARP_SCHEDULER - Core 0 - Scheduler 0 - scheduler_unit::cycle()
GPGPU-Sim Cycle 17761: WARP_SCHEDULER - Core 0 - Scheduler 0 - Testing (warp_id 0, dynamic_warp_id 0)
GPGPU-Sim Cycle 17761: WARP_SCHEDULER - Core 0 - Scheduler 0 - Warp (warp_id 0, dynamic_warp_id 0) has valid instruction ( PC=0x040 (bfs.1.sm_20.ptx:39) shl.b32 %r14, %r13, 9;)
GPGPU-Sim Cycle 17761: WARP_SCHEDULER - Core 0 - Scheduler 0 - Warp (warp_id 0, dynamic_warp_id 0) fails scoreboard
GPGPU-Sim Cycle 17761: WARP_SCHEDULER - Core 0 - Scheduler 1 - scheduler_unit::cycle()
GPGPU-Sim Cycle 17762: SCOREBOARD - Core 0 - Register Released - warp:0, reg: 53
GPGPU-Sim Cycle 17762: SCOREBOARD - Core 0 - Release register - warp:0, reg: 53
GPGPU-Sim Cycle 17762: WARP_SCHEDULER - Core 0 - Scheduler 1 - scheduler_unit::cycle()
GPGPU-Sim Cycle 17762: WARP_SCHEDULER - Core 0 - Scheduler 0 - scheduler_unit::cycle()
GPGPU-Sim Cycle 17762: WARP_SCHEDULER - Core 0 - Scheduler 0 - Testing (warp_id 0, dynamic_warp_id 0)
GPGPU-Sim Cycle 17762: WARP_SCHEDULER - Core 0 - Scheduler 0 - Warp (warp_id 0, dynamic_warp_id 0) has valid instruction ( PC=0x040 (bfs.1.sm_20.ptx:39) shl.b32 %r14, %r13, 9;)
GPGPU-Sim Cycle 17762: WARP_SCHEDULER - Core 0 - Scheduler 0 - Warp (warp_id 0, dynamic_warp_id 0) fails scoreboard
GPGPU-Sim Cycle 17763: SCOREBOARD - Core 0 - Register Released - warp:0, reg: 24
GPGPU-Sim Cycle 17763: SCOREBOARD - Core 0 - Release register - warp:0, reg: 24
GPGPU-Sim Cycle 17763: WARP_SCHEDULER - Core 0 - Scheduler 0 - scheduler_unit::cycle()
GPGPU-Sim Cycle 17763: WARP_SCHEDULER - Core 0 - Scheduler 0 - Testing (warp_id 0, dynamic_warp_id 0)
GPGPU-Sim Cycle 17763: WARP_SCHEDULER - Core 0 - Scheduler 0 - Warp (warp_id 0, dynamic_warp_id 0) has valid instruction ( PC=0x040 (bfs.1.sm_20.ptx:39) shl.b32 %r14, %r13, 9;)
GPGPU-Sim Cycle 17763: WARP_SCHEDULER - Core 0 - Scheduler 0 - Warp (warp_id 0, dynamic_warp_id 0) fails scoreboard
GPGPU-Sim Cycle 17763: WARP_SCHEDULER - Core 0 - Scheduler 1 - scheduler_unit::cycle()
GPGPU-Sim Cycle 17764: WARP_SCHEDULER - Core 0 - Scheduler 1 - scheduler_unit::cycle()
GPGPU-Sim Cycle 17764: WARP_SCHEDULER - Core 0 - Scheduler 0 - scheduler_unit::cycle()
GPGPU-Sim Cycle 17764: WARP_SCHEDULER - Core 0 - Scheduler 0 - Testing (warp_id 0, dynamic_warp_id 0)
GPGPU-Sim Cycle 17764: WARP_SCHEDULER - Core 0 - Scheduler 0 - Warp (warp_id 0, dynamic_warp_id 0) has valid instruction ( PC=0x040 (bfs.1.sm_20.ptx:39) shl.b32 %r14, %r13, 9;)
GPGPU-Sim Cycle 17764: WARP_SCHEDULER - Core 0 - Scheduler 0 - Warp (warp_id 0, dynamic_warp_id 0) fails scoreboard
GPGPU-Sim Cycle 17765: WARP_SCHEDULER - Core 0 - Scheduler 0 - scheduler_unit::cycle()
GPGPU-Sim Cycle 17765: WARP_SCHEDULER - Core 0 - Scheduler 0 - Testing (warp_id 0, dynamic_warp_id 0)
GPGPU-Sim Cycle 17765: WARP_SCHEDULER - Core 0 - Scheduler 0 - Warp (warp_id 0, dynamic_warp_id 0) has valid instruction ( PC=0x040 (bfs.1.sm_20.ptx:39) shl.b32 %r14, %r13, 9;)
GPGPU-Sim Cycle 17765: WARP_SCHEDULER - Core 0 - Scheduler 0 - Warp (warp_id 0, dynamic_warp_id 0) fails scoreboard
GPGPU-Sim Cycle 17765: WARP_SCHEDULER - Core 0 - Scheduler 1 - scheduler_unit::cycle()
GPGPU-Sim Cycle 17766: SCOREBOARD - Core 0 - Register Released - warp:0, reg: 25
GPGPU-Sim Cycle 17766: SCOREBOARD - Core 0 - Release register - warp:0, reg: 25
GPGPU-Sim Cycle 17766: WARP_SCHEDULER - Core 0 - Scheduler 1 - scheduler_unit::cycle()
GPGPU-Sim Cycle 17766: WARP_SCHEDULER - Core 0 - Scheduler 0 - scheduler_unit::cycle()
GPGPU-Sim Cycle 17766: WARP_SCHEDULER - Core 0 - Scheduler 0 - Testing (warp_id 0, dynamic_warp_id 0)
GPGPU-Sim Cycle 17766: WARP_SCHEDULER - Core 0 - Scheduler 0 - Warp (warp_id 0, dynamic_warp_id 0) has valid instruction ( PC=0x040 (bfs.1.sm_20.ptx:39) shl.b32 %r14, %r13, 9;)
GPGPU-Sim Cycle 17766: WARP_SCHEDULER - Core 0 - Scheduler 0 - Warp (warp_id 0, dynamic_warp_id 0) passes scoreboard
GPGPU-Sim Cycle 17766: SCOREBOARD - Core 0 - Reserved Register - warp:0, reg: 26
GPGPU-Sim Cycle 17766: SCOREBOARD - Core 0 - Reserved register - warp:0, reg: 26
GPGPU-Sim Cycle 17766: WARP_SCHEDULER - Core 0 - Scheduler 0 - Warp (warp_id 0, dynamic_warp_id 0) issued 1 instructions
GPGPU-Sim Cycle 17766: WARP_SCHEDULER - Core 0 - Scheduler 0 - Warp (warp_id 0, dynamic_warp_id 0) has valid instruction ( PC=0x048 (bfs.1.sm_20.ptx:40) mov.u32 %r15, %tid.x;)
GPGPU-Sim Cycle 17766: WARP_SCHEDULER - Core 0 - Scheduler 0 - Warp (warp_id 0, dynamic_warp_id 0) passes scoreboard
GPGPU-Sim Cycle 17767: WARP_SCHEDULER - Core 0 - Scheduler 0 - scheduler_unit::cycle()
GPGPU-Sim Cycle 17767: WARP_SCHEDULER - Core 0 - Scheduler 0 - Testing (warp_id 0, dynamic_warp_id 0)
GPGPU-Sim Cycle 17767: WARP_SCHEDULER - Core 0 - Scheduler 0 - Warp (warp_id 0, dynamic_warp_id 0) has valid instruction ( PC=0x048 (bfs.1.sm_20.ptx:40) mov.u32 %r15, %tid.x;)
GPGPU-Sim Cycle 17767: WARP_SCHEDULER - Core 0 - Scheduler 0 - Warp (warp_id 0, dynamic_warp_id 0) passes scoreboard
GPGPU-Sim Cycle 17767: SCOREBOARD - Core 0 - Reserved Register - warp:0, reg: 27
GPGPU-Sim Cycle 17767: SCOREBOARD - Core 0 - Reserved register - warp:0, reg: 27
GPGPU-Sim Cycle 17767: WARP_SCHEDULER - Core 0 - Scheduler 0 - Warp (warp_id 0, dynamic_warp_id 0) issued 1 instructions
GPGPU-Sim Cycle 17767: WARP_SCHEDULER - Core 0 - Scheduler 1 - scheduler_unit::cycle()
GPGPU-Sim Cycle 17768: WARP_SCHEDULER - Core 0 - Scheduler 1 - scheduler_unit::cycle()
GPGPU-Sim Cycle 17768: WARP_SCHEDULER - Core 0 - Scheduler 0 - scheduler_unit::cycle()
GPGPU-Sim Cycle 17768: WARP_SCHEDULER - Core 0 - Scheduler 0 - Testing (warp_id 0, dynamic_warp_id 0)
GPGPU-Sim Cycle 17768: WARP_SCHEDULER - Core 0 - Scheduler 0 - Warp (warp_id 0, dynamic_warp_id 0) has valid instruction ( PC=0x050 (bfs.1.sm_20.ptx:41) add.s32 %r1, %r14, %r15;)
GPGPU-Sim Cycle 17768: WARP_SCHEDULER - Core 0 - Scheduler 0 - Warp (warp_id 0, dynamic_warp_id 0) fails scoreboard
GPGPU-Sim Cycle 17769: WARP_SCHEDULER - Core 0 - Scheduler 0 - scheduler_unit::cycle()
GPGPU-Sim Cycle 17769: WARP_SCHEDULER - Core 0 - Scheduler 0 - Testing (warp_id 0, dynamic_warp_id 0)
GPGPU-Sim Cycle 17769: WARP_SCHEDULER - Core 0 - Scheduler 0 - Warp (warp_id 0, dynamic_warp_id 0) has valid instruction ( PC=0x050 (bfs.1.sm_20.ptx:41) add.s32 %r1, %r14, %r15;)
GPGPU-Sim Cycle 17769: WARP_SCHEDULER - Core 0 - Scheduler 0 - Warp (warp_id 0, dynamic_warp_id 0) fails scoreboard
GPGPU-Sim Cycle 17769: WARP_SCHEDULER - Core 0 - Scheduler 1 - scheduler_unit::cycle()
GPGPU-Sim Cycle 17770: WARP_SCHEDULER - Core 0 - Scheduler 1 - scheduler_unit::cycle()
GPGPU-Sim Cycle 17770: WARP_SCHEDULER - Core 0 - Scheduler 0 - scheduler_unit::cycle()
GPGPU-Sim Cycle 17770: WARP_SCHEDULER - Core 0 - Scheduler 0 - Testing (warp_id 0, dynamic_warp_id 0)
GPGPU-Sim Cycle 17770: WARP_SCHEDULER - Core 0 - Scheduler 0 - Warp (warp_id 0, dynamic_warp_id 0) has valid instruction ( PC=0x050 (bfs.1.sm_20.ptx:41) add.s32 %r1, %r14, %r15;)
GPGPU-Sim Cycle 17770: WARP_SCHEDULER - Core 0 - Scheduler 0 - Warp (warp_id 0, dynamic_warp_id 0) fails scoreboard
GPGPU-Sim Cycle 17771: WARP_SCHEDULER - Core 0 - Scheduler 0 - scheduler_unit::cycle()
GPGPU-Sim Cycle 17771: WARP_SCHEDULER - Core 0 - Scheduler 0 - Testing (warp_id 0, dynamic_warp_id 0)
GPGPU-Sim Cycle 17771: WARP_SCHEDULER - Core 0 - Scheduler 0 - Warp (warp_id 0, dynamic_warp_id 0) has valid instruction ( PC=0x050 (bfs.1.sm_20.ptx:41) add.s32 %r1, %r14, %r15;)
GPGPU-Sim Cycle 17771: WARP_SCHEDULER - Core 0 - Scheduler 0 - Warp (warp_id 0, dynamic_warp_id 0) fails scoreboard
GPGPU-Sim Cycle 17771: WARP_SCHEDULER - Core 0 - Scheduler 1 - scheduler_unit::cycle()
GPGPU-Sim Cycle 17772: WARP_SCHEDULER - Core 0 - Scheduler 1 - scheduler_unit::cycle()
GPGPU-Sim Cycle 17772: WARP_SCHEDULER - Core 0 - Scheduler 0 - scheduler_unit::cycle()
GPGPU-Sim Cycle 17772: WARP_SCHEDULER - Core 0 - Scheduler 0 - Testing (warp_id 0, dynamic_warp_id 0)
GPGPU-Sim Cycle 17772: WARP_SCHEDULER - Core 0 - Scheduler 0 - Warp (warp_id 0, dynamic_warp_id 0) has valid instruction ( PC=0x050 (bfs.1.sm_20.ptx:41) add.s32 %r1, %r14, %r15;)
GPGPU-Sim Cycle 17772: WARP_SCHEDULER - Core 0 - Scheduler 0 - Warp (warp_id 0, dynamic_warp_id 0) fails scoreboard
GPGPU-Sim Cycle 17773: SCOREBOARD - Core 0 - Register Released - warp:0, reg: 26
GPGPU-Sim Cycle 17773: SCOREBOARD - Core 0 - Release register - warp:0, reg: 26
GPGPU-Sim Cycle 17773: SCOREBOARD - Core 0 - Register Released - warp:0, reg: 27
GPGPU-Sim Cycle 17773: SCOREBOARD - Core 0 - Release register - warp:0, reg: 27
GPGPU-Sim Cycle 17773: WARP_SCHEDULER - Core 0 - Scheduler 0 - scheduler_unit::cycle()
GPGPU-Sim Cycle 17773: WARP_SCHEDULER - Core 0 - Scheduler 0 - Testing (warp_id 0, dynamic_warp_id 0)
GPGPU-Sim Cycle 17773: WARP_SCHEDULER - Core 0 - Scheduler 0 - Warp (warp_id 0, dynamic_warp_id 0) has valid instruction ( PC=0x050 (bfs.1.sm_20.ptx:41) add.s32 %r1, %r14, %r15;)
GPGPU-Sim Cycle 17773: WARP_SCHEDULER - Core 0 - Scheduler 0 - Warp (warp_id 0, dynamic_warp_id 0) passes scoreboard
GPGPU-Sim Cycle 17773: SCOREBOARD - Core 0 - Reserved Register - warp:0, reg: 13
GPGPU-Sim Cycle 17773: SCOREBOARD - Core 0 - Reserved register - warp:0, reg: 13
GPGPU-Sim Cycle 17773: WARP_SCHEDULER - Core 0 - Scheduler 0 - Warp (warp_id 0, dynamic_warp_id 0) issued 1 instructions
GPGPU-Sim Cycle 17773: WARP_SCHEDULER - Core 0 - Scheduler 0 - Warp (warp_id 0, dynamic_warp_id 0) has valid instruction ( PC=0x058 (bfs.1.sm_20.ptx:42) setp.ge.s32%p1, %r1, %r12;)
GPGPU-Sim Cycle 17773: WARP_SCHEDULER - Core 0 - Scheduler 0 - Warp (warp_id 0, dynamic_warp_id 0) fails scoreboard
GPGPU-Sim Cycle 17773: WARP_SCHEDULER - Core 0 - Scheduler 1 - scheduler_unit::cycle()
GPGPU-Sim Cycle 17774: WARP_SCHEDULER - Core 0 - Scheduler 1 - scheduler_unit::cycle()
GPGPU-Sim Cycle 17774: WARP_SCHEDULER - Core 0 - Scheduler 0 - scheduler_unit::cycle()
GPGPU-Sim Cycle 17774: WARP_SCHEDULER - Core 0 - Scheduler 0 - Testing (warp_id 0, dynamic_warp_id 0)
GPGPU-Sim Cycle 17774: WARP_SCHEDULER - Core 0 - Scheduler 0 - Warp (warp_id 0, dynamic_warp_id 0) has valid instruction ( PC=0x058 (bfs.1.sm_20.ptx:42) setp.ge.s32%p1, %r1, %r12;)
GPGPU-Sim Cycle 17774: WARP_SCHEDULER - Core 0 - Scheduler 0 - Warp (warp_id 0, dynamic_warp_id 0) fails scoreboard
GPGPU-Sim Cycle 17775: WARP_SCHEDULER - Core 0 - Scheduler 0 - scheduler_unit::cycle()
GPGPU-Sim Cycle 17775: WARP_SCHEDULER - Core 0 - Scheduler 0 - Testing (warp_id 0, dynamic_warp_id 0)
GPGPU-Sim Cycle 17775: WARP_SCHEDULER - Core 0 - Scheduler 0 - Warp (warp_id 0, dynamic_warp_id 0) has valid instruction ( PC=0x058 (bfs.1.sm_20.ptx:42) setp.ge.s32%p1, %r1, %r12;)
GPGPU-Sim Cycle 17775: WARP_SCHEDULER - Core 0 - Scheduler 0 - Warp (warp_id 0, dynamic_warp_id 0) fails scoreboard
GPGPU-Sim Cycle 17775: WARP_SCHEDULER - Core 0 - Scheduler 1 - scheduler_unit::cycle()
GPGPU-Sim Cycle 17776: WARP_SCHEDULER - Core 0 - Scheduler 1 - scheduler_unit::cycle()
GPGPU-Sim Cycle 17776: WARP_SCHEDULER - Core 0 - Scheduler 0 - scheduler_unit::cycle()
GPGPU-Sim Cycle 17776: WARP_SCHEDULER - Core 0 - Scheduler 0 - Testing (warp_id 0, dynamic_warp_id 0)
GPGPU-Sim Cycle 17776: WARP_SCHEDULER - Core 0 - Scheduler 0 - Warp (warp_id 0, dynamic_warp_id 0) has valid instruction ( PC=0x058 (bfs.1.sm_20.ptx:42) setp.ge.s32%p1, %r1, %r12;)
GPGPU-Sim Cycle 17776: WARP_SCHEDULER - Core 0 - Scheduler 0 - Warp (warp_id 0, dynamic_warp_id 0) fails scoreboard
GPGPU-Sim Cycle 17777: WARP_SCHEDULER - Core 0 - Scheduler 0 - scheduler_unit::cycle()
GPGPU-Sim Cycle 17777: WARP_SCHEDULER - Core 0 - Scheduler 0 - Testing (warp_id 0, dynamic_warp_id 0)
GPGPU-Sim Cycle 17777: WARP_SCHEDULER - Core 0 - Scheduler 0 - Warp (warp_id 0, dynamic_warp_id 0) has valid instruction ( PC=0x058 (bfs.1.sm_20.ptx:42) setp.ge.s32%p1, %r1, %r12;)
GPGPU-Sim Cycle 17777: WARP_SCHEDULER - Core 0 - Scheduler 0 - Warp (warp_id 0, dynamic_warp_id 0) fails scoreboard
GPGPU-Sim Cycle 17777: WARP_SCHEDULER - Core 0 - Scheduler 1 - scheduler_unit::cycle()
GPGPU-Sim Cycle 17778: WARP_SCHEDULER - Core 0 - Scheduler 1 - scheduler_unit::cycle()
GPGPU-Sim Cycle 17778: WARP_SCHEDULER - Core 0 - Scheduler 0 - scheduler_unit::cycle()
GPGPU-Sim Cycle 17778: WARP_SCHEDULER - Core 0 - Scheduler 0 - Testing (warp_id 0, dynamic_warp_id 0)
GPGPU-Sim Cycle 17778: WARP_SCHEDULER - Core 0 - Scheduler 0 - Warp (warp_id 0, dynamic_warp_id 0) has valid instruction ( PC=0x058 (bfs.1.sm_20.ptx:42) setp.ge.s32%p1, %r1, %r12;)
GPGPU-Sim Cycle 17778: WARP_SCHEDULER - Core 0 - Scheduler 0 - Warp (warp_id 0, dynamic_warp_id 0) fails scoreboard
GPGPU-Sim Cycle 17779: WARP_SCHEDULER - Core 0 - Scheduler 0 - scheduler_unit::cycle()
GPGPU-Sim Cycle 17779: WARP_SCHEDULER - Core 0 - Scheduler 0 - Testing (warp_id 0, dynamic_warp_id 0)
GPGPU-Sim Cycle 17779: WARP_SCHEDULER - Core 0 - Scheduler 0 - Warp (warp_id 0, dynamic_warp_id 0) has valid instruction ( PC=0x058 (bfs.1.sm_20.ptx:42) setp.ge.s32%p1, %r1, %r12;)
GPGPU-Sim Cycle 17779: WARP_SCHEDULER - Core 0 - Scheduler 0 - Warp (warp_id 0, dynamic_warp_id 0) fails scoreboard
GPGPU-Sim Cycle 17779: WARP_SCHEDULER - Core 0 - Scheduler 1 - scheduler_unit::cycle()
GPGPU-Sim Cycle 17780: WARP_SCHEDULER - Core 0 - Scheduler 1 - scheduler_unit::cycle()
GPGPU-Sim Cycle 17780: WARP_SCHEDULER - Core 0 - Scheduler 0 - scheduler_unit::cycle()
GPGPU-Sim Cycle 17780: WARP_SCHEDULER - Core 0 - Scheduler 0 - Testing (warp_id 0, dynamic_warp_id 0)
GPGPU-Sim Cycle 17780: WARP_SCHEDULER - Core 0 - Scheduler 0 - Warp (warp_id 0, dynamic_warp_id 0) has valid instruction ( PC=0x058 (bfs.1.sm_20.ptx:42) setp.ge.s32%p1, %r1, %r12;)
GPGPU-Sim Cycle 17780: WARP_SCHEDULER - Core 0 - Scheduler 0 - Warp (warp_id 0, dynamic_warp_id 0) fails scoreboard
GPGPU-Sim Cycle 17781: WARP_SCHEDULER - Core 0 - Scheduler 0 - scheduler_unit::cycle()
GPGPU-Sim Cycle 17781: WARP_SCHEDULER - Core 0 - Scheduler 0 - Testing (warp_id 0, dynamic_warp_id 0)
GPGPU-Sim Cycle 17781: WARP_SCHEDULER - Core 0 - Scheduler 0 - Warp (warp_id 0, dynamic_warp_id 0) has valid instruction ( PC=0x058 (bfs.1.sm_20.ptx:42) setp.ge.s32%p1, %r1, %r12;)
GPGPU-Sim Cycle 17781: WARP_SCHEDULER - Core 0 - Scheduler 0 - Warp (warp_id 0, dynamic_warp_id 0) fails scoreboard
GPGPU-Sim Cycle 17781: WARP_SCHEDULER - Core 0 - Scheduler 1 - scheduler_unit::cycle()
GPGPU-Sim Cycle 17782: WARP_SCHEDULER - Core 0 - Scheduler 1 - scheduler_unit::cycle()
GPGPU-Sim Cycle 17782: WARP_SCHEDULER - Core 0 - Scheduler 0 - scheduler_unit::cycle()
GPGPU-Sim Cycle 17782: WARP_SCHEDULER - Core 0 - Scheduler 0 - Testing (warp_id 0, dynamic_warp_id 0)
GPGPU-Sim Cycle 17782: WARP_SCHEDULER - Core 0 - Scheduler 0 - Warp (warp_id 0, dynamic_warp_id 0) has valid instruction ( PC=0x058 (bfs.1.sm_20.ptx:42) setp.ge.s32%p1, %r1, %r12;)
GPGPU-Sim Cycle 17782: WARP_SCHEDULER - Core 0 - Scheduler 0 - Warp (warp_id 0, dynamic_warp_id 0) fails scoreboard
GPGPU-Sim Cycle 17783: SCOREBOARD - Core 0 - Register Released - warp:0, reg: 13
GPGPU-Sim Cycle 17783: SCOREBOARD - Core 0 - Release register - warp:0, reg: 13
GPGPU-Sim Cycle 17783: WARP_SCHEDULER - Core 0 - Scheduler 0 - scheduler_unit::cycle()
GPGPU-Sim Cycle 17783: WARP_SCHEDULER - Core 0 - Scheduler 0 - Testing (warp_id 0, dynamic_warp_id 0)
GPGPU-Sim Cycle 17783: WARP_SCHEDULER - Core 0 - Scheduler 0 - Warp (warp_id 0, dynamic_warp_id 0) has valid instruction ( PC=0x058 (bfs.1.sm_20.ptx:42) setp.ge.s32%p1, %r1, %r12;)
GPGPU-Sim Cycle 17783: WARP_SCHEDULER - Core 0 - Scheduler 0 - Warp (warp_id 0, dynamic_warp_id 0) passes scoreboard
GPGPU-Sim Cycle 17783: SCOREBOARD - Core 0 - Reserved Register - warp:0, reg: 2
GPGPU-Sim Cycle 17783: SCOREBOARD - Core 0 - Reserved register - warp:0, reg: 2
GPGPU-Sim Cycle 17783: WARP_SCHEDULER - Core 0 - Scheduler 0 - Warp (warp_id 0, dynamic_warp_id 0) issued 1 instructions
GPGPU-Sim Cycle 17783: WARP_SCHEDULER - Core 0 - Scheduler 1 - scheduler_unit::cycle()
GPGPU-Sim Cycle 17784: WARP_SCHEDULER - Core 0 - Scheduler 1 - scheduler_unit::cycle()
GPGPU-Sim Cycle 17784: WARP_SCHEDULER - Core 0 - Scheduler 0 - scheduler_unit::cycle()
GPGPU-Sim Cycle 17784: WARP_SCHEDULER - Core 0 - Scheduler 0 - Testing (warp_id 0, dynamic_warp_id 0)
GPGPU-Sim Cycle 17784: WARP_SCHEDULER - Core 0 - Scheduler 0 - Warp (warp_id 0, dynamic_warp_id 0) has valid instruction ( PC=0x060 (bfs.1.sm_20.ptx:43) @%p1 bra BB0_7;)
GPGPU-Sim Cycle 17784: WARP_SCHEDULER - Core 0 - Scheduler 0 - Warp (warp_id 0, dynamic_warp_id 0) fails scoreboard
GPGPU-Sim Cycle 17785: WARP_SCHEDULER - Core 0 - Scheduler 0 - scheduler_unit::cycle()
GPGPU-Sim Cycle 17785: WARP_SCHEDULER - Core 0 - Scheduler 0 - Testing (warp_id 0, dynamic_warp_id 0)
GPGPU-Sim Cycle 17785: WARP_SCHEDULER - Core 0 - Scheduler 0 - Warp (warp_id 0, dynamic_warp_id 0) has valid instruction ( PC=0x060 (bfs.1.sm_20.ptx:43) @%p1 bra BB0_7;)
GPGPU-Sim Cycle 17785: WARP_SCHEDULER - Core 0 - Scheduler 0 - Warp (warp_id 0, dynamic_warp_id 0) fails scoreboard
GPGPU-Sim Cycle 17785: WARP_SCHEDULER - Core 0 - Scheduler 1 - scheduler_unit::cycle()
GPGPU-Sim Cycle 17786: WARP_SCHEDULER - Core 0 - Scheduler 1 - scheduler_unit::cycle()
GPGPU-Sim Cycle 17786: WARP_SCHEDULER - Core 0 - Scheduler 0 - scheduler_unit::cycle()
GPGPU-Sim Cycle 17786: WARP_SCHEDULER - Core 0 - Scheduler 0 - Testing (warp_id 0, dynamic_warp_id 0)
GPGPU-Sim Cycle 17786: WARP_SCHEDULER - Core 0 - Scheduler 0 - Warp (warp_id 0, dynamic_warp_id 0) has valid instruction ( PC=0x060 (bfs.1.sm_20.ptx:43) @%p1 bra BB0_7;)
GPGPU-Sim Cycle 17786: WARP_SCHEDULER - Core 0 - Scheduler 0 - Warp (warp_id 0, dynamic_warp_id 0) fails scoreboard
GPGPU-Sim Cycle 17787: WARP_SCHEDULER - Core 0 - Scheduler 0 - scheduler_unit::cycle()
GPGPU-Sim Cycle 17787: WARP_SCHEDULER - Core 0 - Scheduler 0 - Testing (warp_id 0, dynamic_warp_id 0)
GPGPU-Sim Cycle 17787: WARP_SCHEDULER - Core 0 - Scheduler 0 - Warp (warp_id 0, dynamic_warp_id 0) has valid instruction ( PC=0x060 (bfs.1.sm_20.ptx:43) @%p1 bra BB0_7;)
GPGPU-Sim Cycle 17787: WARP_SCHEDULER - Core 0 - Scheduler 0 - Warp (warp_id 0, dynamic_warp_id 0) fails scoreboard
GPGPU-Sim Cycle 17787: WARP_SCHEDULER - Core 0 - Scheduler 1 - scheduler_unit::cycle()
GPGPU-Sim Cycle 17788: WARP_SCHEDULER - Core 0 - Scheduler 1 - scheduler_unit::cycle()
GPGPU-Sim Cycle 17788: WARP_SCHEDULER - Core 0 - Scheduler 0 - scheduler_unit::cycle()
GPGPU-Sim Cycle 17788: WARP_SCHEDULER - Core 0 - Scheduler 0 - Testing (warp_id 0, dynamic_warp_id 0)
GPGPU-Sim Cycle 17788: WARP_SCHEDULER - Core 0 - Scheduler 0 - Warp (warp_id 0, dynamic_warp_id 0) has valid instruction ( PC=0x060 (bfs.1.sm_20.ptx:43) @%p1 bra BB0_7;)
GPGPU-Sim Cycle 17788: WARP_SCHEDULER - Core 0 - Scheduler 0 - Warp (warp_id 0, dynamic_warp_id 0) fails scoreboard
GPGPU-Sim Cycle 17789: WARP_SCHEDULER - Core 0 - Scheduler 0 - scheduler_unit::cycle()
GPGPU-Sim Cycle 17789: WARP_SCHEDULER - Core 0 - Scheduler 0 - Testing (warp_id 0, dynamic_warp_id 0)
GPGPU-Sim Cycle 17789: WARP_SCHEDULER - Core 0 - Scheduler 0 - Warp (warp_id 0, dynamic_warp_id 0) has valid instruction ( PC=0x060 (bfs.1.sm_20.ptx:43) @%p1 bra BB0_7;)
GPGPU-Sim Cycle 17789: WARP_SCHEDULER - Core 0 - Scheduler 0 - Warp (warp_id 0, dynamic_warp_id 0) fails scoreboard
GPGPU-Sim Cycle 17789: WARP_SCHEDULER - Core 0 - Scheduler 1 - scheduler_unit::cycle()
GPGPU-Sim Cycle 17790: SCOREBOARD - Core 0 - Register Released - warp:0, reg: 2
GPGPU-Sim Cycle 17790: SCOREBOARD - Core 0 - Release register - warp:0, reg: 2
GPGPU-Sim Cycle 17790: WARP_SCHEDULER - Core 0 - Scheduler 1 - scheduler_unit::cycle()
GPGPU-Sim Cycle 17790: WARP_SCHEDULER - Core 0 - Scheduler 0 - scheduler_unit::cycle()
GPGPU-Sim Cycle 17790: WARP_SCHEDULER - Core 0 - Scheduler 0 - Testing (warp_id 0, dynamic_warp_id 0)
GPGPU-Sim Cycle 17790: WARP_SCHEDULER - Core 0 - Scheduler 0 - Warp (warp_id 0, dynamic_warp_id 0) has valid instruction ( PC=0x060 (bfs.1.sm_20.ptx:43) @%p1 bra BB0_7;)
GPGPU-Sim Cycle 17790: WARP_SCHEDULER - Core 0 - Scheduler 0 - Warp (warp_id 0, dynamic_warp_id 0) passes scoreboard
GPGPU-Sim Cycle 17790: WARP_SCHEDULER - Core 0 - Scheduler 0 - Warp (warp_id 0, dynamic_warp_id 0) issued 1 instructions
GPGPU-Sim Cycle 17790: WARP_SCHEDULER - Core 0 - Scheduler 0 - Warp (warp_id 0, dynamic_warp_id 0) has valid instruction ( PC=0x068 (bfs.1.sm_20.ptx:45) cvta.to.global.u64 %rd16, %rd12;)
GPGPU-Sim Cycle 17790: WARP_SCHEDULER - Core 0 - Scheduler 0 - Warp (warp_id 0, dynamic_warp_id 0) passes scoreboard
GPGPU-Sim Cycle 17791: WARP_SCHEDULER - Core 0 - Scheduler 0 - scheduler_unit::cycle()
GPGPU-Sim Cycle 17791: WARP_SCHEDULER - Core 0 - Scheduler 0 - Testing (warp_id 0, dynamic_warp_id 0)
GPGPU-Sim Cycle 17791: WARP_SCHEDULER - Core 0 - Scheduler 0 - Warp (warp_id 0, dynamic_warp_id 0) has valid instruction ( PC=0x068 (bfs.1.sm_20.ptx:45) cvta.to.global.u64 %rd16, %rd12;)
GPGPU-Sim Cycle 17791: WARP_SCHEDULER - Core 0 - Scheduler 0 - Warp (warp_id 0, dynamic_warp_id 0) passes scoreboard
GPGPU-Sim Cycle 17791: SCOREBOARD - Core 0 - Reserved Register - warp:0, reg: 54
GPGPU-Sim Cycle 17791: SCOREBOARD - Core 0 - Reserved register - warp:0, reg: 54
GPGPU-Sim Cycle 17791: WARP_SCHEDULER - Core 0 - Scheduler 0 - Warp (warp_id 0, dynamic_warp_id 0) issued 1 instructions
GPGPU-Sim Cycle 17791: WARP_SCHEDULER - Core 0 - Scheduler 1 - scheduler_unit::cycle()
GPGPU-Sim Cycle 17792: WARP_SCHEDULER - Core 0 - Scheduler 1 - scheduler_unit::cycle()
GPGPU-Sim Cycle 17792: WARP_SCHEDULER - Core 0 - Scheduler 0 - scheduler_unit::cycle()
GPGPU-Sim Cycle 17792: WARP_SCHEDULER - Core 0 - Scheduler 0 - Testing (warp_id 0, dynamic_warp_id 0)
GPGPU-Sim Cycle 17792: WARP_SCHEDULER - Core 0 - Scheduler 0 - Warp (warp_id 0, dynamic_warp_id 0) has valid instruction ( PC=0x070 (bfs.1.sm_20.ptx:46) cvt.s64.s32%rd1, %r1;)
GPGPU-Sim Cycle 17792: WARP_SCHEDULER - Core 0 - Scheduler 0 - Warp (warp_id 0, dynamic_warp_id 0) passes scoreboard
GPGPU-Sim Cycle 17792: SCOREBOARD - Core 0 - Reserved Register - warp:0, reg: 39
GPGPU-Sim Cycle 17792: SCOREBOARD - Core 0 - Reserved register - warp:0, reg: 39
GPGPU-Sim Cycle 17792: WARP_SCHEDULER - Core 0 - Scheduler 0 - Warp (warp_id 0, dynamic_warp_id 0) issued 1 instructions
GPGPU-Sim Cycle 17792: WARP_SCHEDULER - Core 0 - Scheduler 0 - Warp (warp_id 0, dynamic_warp_id 0) has valid instruction ( PC=0x078 (bfs.1.sm_20.ptx:47) add.s64 %rd2, %rd16, %rd1;)
GPGPU-Sim Cycle 17792: WARP_SCHEDULER - Core 0 - Scheduler 0 - Warp (warp_id 0, dynamic_warp_id 0) fails scoreboard
GPGPU-Sim Cycle 17793: WARP_SCHEDULER - Core 0 - Scheduler 0 - scheduler_unit::cycle()
GPGPU-Sim Cycle 17793: WARP_SCHEDULER - Core 0 - Scheduler 0 - Testing (warp_id 0, dynamic_warp_id 0)
GPGPU-Sim Cycle 17793: WARP_SCHEDULER - Core 0 - Scheduler 0 - Warp (warp_id 0, dynamic_warp_id 0) has valid instruction ( PC=0x078 (bfs.1.sm_20.ptx:47) add.s64 %rd2, %rd16, %rd1;)
GPGPU-Sim Cycle 17793: WARP_SCHEDULER - Core 0 - Scheduler 0 - Warp (warp_id 0, dynamic_warp_id 0) fails scoreboard
GPGPU-Sim Cycle 17793: WARP_SCHEDULER - Core 0 - Scheduler 1 - scheduler_unit::cycle()
GPGPU-Sim Cycle 17794: WARP_SCHEDULER - Core 0 - Scheduler 1 - scheduler_unit::cycle()
GPGPU-Sim Cycle 17794: WARP_SCHEDULER - Core 0 - Scheduler 0 - scheduler_unit::cycle()
GPGPU-Sim Cycle 17794: WARP_SCHEDULER - Core 0 - Scheduler 0 - Testing (warp_id 0, dynamic_warp_id 0)
GPGPU-Sim Cycle 17794: WARP_SCHEDULER - Core 0 - Scheduler 0 - Warp (warp_id 0, dynamic_warp_id 0) has valid instruction ( PC=0x078 (bfs.1.sm_20.ptx:47) add.s64 %rd2, %rd16, %rd1;)
GPGPU-Sim Cycle 17794: WARP_SCHEDULER - Core 0 - Scheduler 0 - Warp (warp_id 0, dynamic_warp_id 0) fails scoreboard
GPGPU-Sim Cycle 17795: WARP_SCHEDULER - Core 0 - Scheduler 0 - scheduler_unit::cycle()
GPGPU-Sim Cycle 17795: WARP_SCHEDULER - Core 0 - Scheduler 0 - Testing (warp_id 0, dynamic_warp_id 0)
GPGPU-Sim Cycle 17795: WARP_SCHEDULER - Core 0 - Scheduler 0 - Warp (warp_id 0, dynamic_warp_id 0) has valid instruction ( PC=0x078 (bfs.1.sm_20.ptx:47) add.s64 %rd2, %rd16, %rd1;)
GPGPU-Sim Cycle 17795: WARP_SCHEDULER - Core 0 - Scheduler 0 - Warp (warp_id 0, dynamic_warp_id 0) fails scoreboard
GPGPU-Sim Cycle 17795: WARP_SCHEDULER - Core 0 - Scheduler 1 - scheduler_unit::cycle()
GPGPU-Sim Cycle 17796: WARP_SCHEDULER - Core 0 - Scheduler 1 - scheduler_unit::cycle()
GPGPU-Sim Cycle 17796: WARP_SCHEDULER - Core 0 - Scheduler 0 - scheduler_unit::cycle()
GPGPU-Sim Cycle 17796: WARP_SCHEDULER - Core 0 - Scheduler 0 - Testing (warp_id 0, dynamic_warp_id 0)
GPGPU-Sim Cycle 17796: WARP_SCHEDULER - Core 0 - Scheduler 0 - Warp (warp_id 0, dynamic_warp_id 0) has valid instruction ( PC=0x078 (bfs.1.sm_20.ptx:47) add.s64 %rd2, %rd16, %rd1;)
GPGPU-Sim Cycle 17796: WARP_SCHEDULER - Core 0 - Scheduler 0 - Warp (warp_id 0, dynamic_warp_id 0) fails scoreboard
GPGPU-Sim Cycle 17797: WARP_SCHEDULER - Core 0 - Scheduler 0 - scheduler_unit::cycle()
GPGPU-Sim Cycle 17797: WARP_SCHEDULER - Core 0 - Scheduler 0 - Testing (warp_id 0, dynamic_warp_id 0)
GPGPU-Sim Cycle 17797: WARP_SCHEDULER - Core 0 - Scheduler 0 - Warp (warp_id 0, dynamic_warp_id 0) has valid instruction ( PC=0x078 (bfs.1.sm_20.ptx:47) add.s64 %rd2, %rd16, %rd1;)
GPGPU-Sim Cycle 17797: WARP_SCHEDULER - Core 0 - Scheduler 0 - Warp (warp_id 0, dynamic_warp_id 0) fails scoreboard
GPGPU-Sim Cycle 17797: WARP_SCHEDULER - Core 0 - Scheduler 1 - scheduler_unit::cycle()
GPGPU-Sim Cycle 17798: SCOREBOARD - Core 0 - Register Released - warp:0, reg: 54
GPGPU-Sim Cycle 17798: SCOREBOARD - Core 0 - Release register - warp:0, reg: 54
GPGPU-Sim Cycle 17798: WARP_SCHEDULER - Core 0 - Scheduler 1 - scheduler_unit::cycle()
GPGPU-Sim Cycle 17798: WARP_SCHEDULER - Core 0 - Scheduler 0 - scheduler_unit::cycle()
GPGPU-Sim Cycle 17798: WARP_SCHEDULER - Core 0 - Scheduler 0 - Testing (warp_id 0, dynamic_warp_id 0)
GPGPU-Sim Cycle 17798: WARP_SCHEDULER - Core 0 - Scheduler 0 - Warp (warp_id 0, dynamic_warp_id 0) has valid instruction ( PC=0x078 (bfs.1.sm_20.ptx:47) add.s64 %rd2, %rd16, %rd1;)
GPGPU-Sim Cycle 17798: WARP_SCHEDULER - Core 0 - Scheduler 0 - Warp (warp_id 0, dynamic_warp_id 0) fails scoreboard
GPGPU-Sim Cycle 17799: SCOREBOARD - Core 0 - Register Released - warp:0, reg: 39
GPGPU-Sim Cycle 17799: SCOREBOARD - Core 0 - Release register - warp:0, reg: 39
GPGPU-Sim Cycle 17799: WARP_SCHEDULER - Core 0 - Scheduler 0 - scheduler_unit::cycle()
GPGPU-Sim Cycle 17799: WARP_SCHEDULER - Core 0 - Scheduler 0 - Testing (warp_id 0, dynamic_warp_id 0)
GPGPU-Sim Cycle 17799: WARP_SCHEDULER - Core 0 - Scheduler 0 - Warp (warp_id 0, dynamic_warp_id 0) has valid instruction ( PC=0x078 (bfs.1.sm_20.ptx:47) add.s64 %rd2, %rd16, %rd1;)
GPGPU-Sim Cycle 17799: WARP_SCHEDULER - Core 0 - Scheduler 0 - Warp (warp_id 0, dynamic_warp_id 0) passes scoreboard
GPGPU-Sim Cycle 17799: SCOREBOARD - Core 0 - Reserved Register - warp:0, reg: 40
GPGPU-Sim Cycle 17799: SCOREBOARD - Core 0 - Reserved register - warp:0, reg: 40
GPGPU-Sim Cycle 17799: WARP_SCHEDULER - Core 0 - Scheduler 0 - Warp (warp_id 0, dynamic_warp_id 0) issued 1 instructions
GPGPU-Sim Cycle 17799: WARP_SCHEDULER - Core 0 - Scheduler 1 - scheduler_unit::cycle()
GPGPU-Sim Cycle 17800: WARP_SCHEDULER - Core 0 - Scheduler 1 - scheduler_unit::cycle()
GPGPU-Sim Cycle 17800: WARP_SCHEDULER - Core 0 - Scheduler 0 - scheduler_unit::cycle()
GPGPU-Sim Cycle 17800: WARP_SCHEDULER - Core 0 - Scheduler 0 - Testing (warp_id 0, dynamic_warp_id 0)
GPGPU-Sim Cycle 17800: WARP_SCHEDULER - Core 0 - Scheduler 0 - Warp (warp_id 0, dynamic_warp_id 0) has valid instruction ( PC=0x080 (bfs.1.sm_20.ptx:48) ld.global.u8 %rs1, [%rd2];)
GPGPU-Sim Cycle 17800: WARP_SCHEDULER - Core 0 - Scheduler 0 - Warp (warp_id 0, dynamic_warp_id 0) fails scoreboard
GPGPU-Sim Cycle 17801: WARP_SCHEDULER - Core 0 - Scheduler 0 - scheduler_unit::cycle()
GPGPU-Sim Cycle 17801: WARP_SCHEDULER - Core 0 - Scheduler 0 - Testing (warp_id 0, dynamic_warp_id 0)
GPGPU-Sim Cycle 17801: WARP_SCHEDULER - Core 0 - Scheduler 0 - Warp (warp_id 0, dynamic_warp_id 0) has valid instruction ( PC=0x080 (bfs.1.sm_20.ptx:48) ld.global.u8 %rs1, [%rd2];)
GPGPU-Sim Cycle 17801: WARP_SCHEDULER - Core 0 - Scheduler 0 - Warp (warp_id 0, dynamic_warp_id 0) fails scoreboard
GPGPU-Sim Cycle 17801: WARP_SCHEDULER - Core 0 - Scheduler 1 - scheduler_unit::cycle()
GPGPU-Sim Cycle 17802: WARP_SCHEDULER - Core 0 - Scheduler 1 - scheduler_unit::cycle()
GPGPU-Sim Cycle 17802: WARP_SCHEDULER - Core 0 - Scheduler 0 - scheduler_unit::cycle()
GPGPU-Sim Cycle 17802: WARP_SCHEDULER - Core 0 - Scheduler 0 - Testing (warp_id 0, dynamic_warp_id 0)
GPGPU-Sim Cycle 17802: WARP_SCHEDULER - Core 0 - Scheduler 0 - Warp (warp_id 0, dynamic_warp_id 0) has valid instruction ( PC=0x080 (bfs.1.sm_20.ptx:48) ld.global.u8 %rs1, [%rd2];)
GPGPU-Sim Cycle 17802: WARP_SCHEDULER - Core 0 - Scheduler 0 - Warp (warp_id 0, dynamic_warp_id 0) fails scoreboard
GPGPU-Sim Cycle 17803: WARP_SCHEDULER - Core 0 - Scheduler 0 - scheduler_unit::cycle()
GPGPU-Sim Cycle 17803: WARP_SCHEDULER - Core 0 - Scheduler 0 - Testing (warp_id 0, dynamic_warp_id 0)
[...]
L2_cache_bank[20]: Access = 0, Miss = 0, Miss_rate = -nan, Pending_hits = 0, Reservation_fails = 0
L2_cache_bank[21]: Access = 0, Miss = 0, Miss_rate = -nan, Pending_hits = 0, Reservation_fails = 0
L2_total_cache_accesses = 30
L2_total_cache_misses = 0
L2_total_cache_miss_rate = 0.0000
L2_total_cache_pending_hits = 0
L2_total_cache_reservation_fails = 0
L2_total_cache_breakdown:
	L2_cache_stats_breakdown[GLOBAL_ACC_R][HIT] = 19
	L2_cache_stats_breakdown[GLOBAL_ACC_R][HIT_RESERVED] = 0
	L2_cache_stats_breakdown[GLOBAL_ACC_R][MISS] = 0
	L2_cache_stats_breakdown[GLOBAL_ACC_R][RESERVATION_FAIL] = 0
	L2_cache_stats_breakdown[GLOBAL_ACC_R][SECTOR_MISS] = 0
	L2_cache_stats_breakdown[LOCAL_ACC_R][HIT] = 0
	L2_cache_stats_breakdown[LOCAL_ACC_R][HIT_RESERVED] = 0
	L2_cache_stats_breakdown[LOCAL_ACC_R][MISS] = 0
	L2_cache_stats_breakdown[LOCAL_ACC_R][RESERVATION_FAIL] = 0
	L2_cache_stats_breakdown[LOCAL_ACC_R][SECTOR_MISS] = 0
	L2_cache_stats_breakdown[CONST_ACC_R][HIT] = 0
	L2_cache_stats_breakdown[CONST_ACC_R][HIT_RESERVED] = 0
	L2_cache_stats_breakdown[CONST_ACC_R][MISS] = 0
	L2_cache_stats_breakdown[CONST_ACC_R][RESERVATION_FAIL] = 0
	L2_cache_stats_breakdown[CONST_ACC_R][SECTOR_MISS] = 0
	L2_cache_stats_breakdown[TEXTURE_ACC_R][HIT] = 0
	L2_cache_stats_breakdown[TEXTURE_ACC_R][HIT_RESERVED] = 0
	L2_cache_stats_breakdown[TEXTURE_ACC_R][MISS] = 0
	L2_cache_stats_breakdown[TEXTURE_ACC_R][RESERVATION_FAIL] = 0
	L2_cache_stats_breakdown[TEXTURE_ACC_R][SECTOR_MISS] = 0
	L2_cache_stats_breakdown[GLOBAL_ACC_W][HIT] = 11
	L2_cache_stats_breakdown[GLOBAL_ACC_W][HIT_RESERVED] = 0
	L2_cache_stats_breakdown[GLOBAL_ACC_W][MISS] = 0
	L2_cache_stats_breakdown[GLOBAL_ACC_W][RESERVATION_FAIL] = 0
	L2_cache_stats_breakdown[GLOBAL_ACC_W][SECTOR_MISS] = 0
	L2_cache_stats_breakdown[LOCAL_ACC_W][HIT] = 0
	L2_cache_stats_breakdown[LOCAL_ACC_W][HIT_RESERVED] = 0
	L2_cache_stats_breakdown[LOCAL_ACC_W][MISS] = 0
	L2_cache_stats_breakdown[LOCAL_ACC_W][RESERVATION_FAIL] = 0
	L2_cache_stats_breakdown[LOCAL_ACC_W][SECTOR_MISS] = 0
	L2_cache_stats_breakdown[L1_WRBK_ACC][HIT] = 0
	L2_cache_stats_breakdown[L1_WRBK_ACC][HIT_RESERVED] = 0
	L2_cache_stats_breakdown[L1_WRBK_ACC][MISS] = 0
	L2_cache_stats_breakdown[L1_WRBK_ACC][RESERVATION_FAIL] = 0
	L2_cache_stats_breakdown[L1_WRBK_ACC][SECTOR_MISS] = 0
	L2_cache_stats_breakdown[L2_WRBK_ACC][HIT] = 0
	L2_cache_stats_breakdown[L2_WRBK_ACC][HIT_RESERVED] = 0
	L2_cache_stats_breakdown[L2_WRBK_ACC][MISS] = 0
	L2_cache_stats_breakdown[L2_WRBK_ACC][RESERVATION_FAIL] = 0
	L2_cache_stats_breakdown[L2_WRBK_ACC][SECTOR_MISS] = 0
	L2_cache_stats_breakdown[INST_ACC_R][HIT] = 0
	L2_cache_stats_breakdown[INST_ACC_R][HIT_RESERVED] = 0
	L2_cache_stats_breakdown[INST_ACC_R][MISS] = 0
	L2_cache_stats_breakdown[INST_ACC_R][RESERVATION_FAIL] = 0
	L2_cache_stats_breakdown[INST_ACC_R][SECTOR_MISS] = 0
	L2_cache_stats_breakdown[L1_WR_ALLOC_R][HIT] = 0
	L2_cache_stats_breakdown[L1_WR_ALLOC_R][HIT_RESERVED] = 0
	L2_cache_stats_breakdown[L1_WR_ALLOC_R][MISS] = 0
	L2_cache_stats_breakdown[L1_WR_ALLOC_R][RESERVATION_FAIL] = 0
	L2_cache_stats_breakdown[L1_WR_ALLOC_R][SECTOR_MISS] = 0
	L2_cache_stats_breakdown[L2_WR_ALLOC_R][HIT] = 0
	L2_cache_stats_breakdown[L2_WR_ALLOC_R][HIT_RESERVED] = 0
	L2_cache_stats_breakdown[L2_WR_ALLOC_R][MISS] = 0
	L2_cache_stats_breakdown[L2_WR_ALLOC_R][RESERVATION_FAIL] = 0
	L2_cache_stats_breakdown[L2_WR_ALLOC_R][SECTOR_MISS] = 0
	L2_cache_stats_breakdown[GLOBAL_ACC_R][TOTAL_ACCESS] = 19
	L2_cache_stats_breakdown[GLOBAL_ACC_W][TOTAL_ACCESS] = 11
L2_total_cache_reservation_fail_breakdown:
L2_cache_data_port_util = 0.000
L2_cache_fill_port_util = 0.000

icnt_total_pkts_mem_to_simt=30
icnt_total_pkts_simt_to_mem=30
LD_mem_lat_dist  0 0 0 0 0 0 0 0 0 0 0 0 0 0 0 0 0 0 0 0 0 0 0 0 0 0 0
ST_mem_lat_dist  0 0 0 0 0 0 0 0 0 0 0 0 0 0 0 0 0 0 0 0 0 0 0 0 0 0 0
========================================UVM statistics==============================
========================================TLB statistics(access)==============================
Shader0: Tlb_access: 0 Tlb_hit: 0 Tlb_miss: 0 Tlb_hit_rate: -nan
Shader1: Tlb_access: 0 Tlb_hit: 0 Tlb_miss: 0 Tlb_hit_rate: -nan
Shader2: Tlb_access: 0 Tlb_hit: 0 Tlb_miss: 0 Tlb_hit_rate: -nan
Shader3: Tlb_access: 0 Tlb_hit: 0 Tlb_miss: 0 Tlb_hit_rate: -nan
Shader4: Tlb_access: 0 Tlb_hit: 0 Tlb_miss: 0 Tlb_hit_rate: -nan
Shader5: Tlb_access: 0 Tlb_hit: 0 Tlb_miss: 0 Tlb_hit_rate: -nan
Shader6: Tlb_access: 0 Tlb_hit: 0 Tlb_miss: 0 Tlb_hit_rate: -nan
Shader7: Tlb_access: 0 Tlb_hit: 0 Tlb_miss: 0 Tlb_hit_rate: -nan
Shader8: Tlb_access: 0 Tlb_hit: 0 Tlb_miss: 0 Tlb_hit_rate: -nan
Shader9: Tlb_access: 0 Tlb_hit: 0 Tlb_miss: 0 Tlb_hit_rate: -nan
Shader10: Tlb_access: 0 Tlb_hit: 0 Tlb_miss: 0 Tlb_hit_rate: -nan
Shader11: Tlb_access: 0 Tlb_hit: 0 Tlb_miss: 0 Tlb_hit_rate: -nan
Shader12: Tlb_access: 0 Tlb_hit: 0 Tlb_miss: 0 Tlb_hit_rate: -nan
Shader13: Tlb_access: 0 Tlb_hit: 0 Tlb_miss: 0 Tlb_hit_rate: -nan
Shader14: Tlb_access: 0 Tlb_hit: 0 Tlb_miss: 0 Tlb_hit_rate: -nan
Shader15: Tlb_access: 0 Tlb_hit: 0 Tlb_miss: 0 Tlb_hit_rate: -nan
Shader16: Tlb_access: 0 Tlb_hit: 0 Tlb_miss: 0 Tlb_hit_rate: -nan
Shader17: Tlb_access: 0 Tlb_hit: 0 Tlb_miss: 0 Tlb_hit_rate: -nan
Shader18: Tlb_access: 0 Tlb_hit: 0 Tlb_miss: 0 Tlb_hit_rate: -nan
Shader19: Tlb_access: 0 Tlb_hit: 0 Tlb_miss: 0 Tlb_hit_rate: -nan
Shader20: Tlb_access: 0 Tlb_hit: 0 Tlb_miss: 0 Tlb_hit_rate: -nan
Shader21: Tlb_access: 0 Tlb_hit: 0 Tlb_miss: 0 Tlb_hit_rate: -nan
Shader22: Tlb_access: 0 Tlb_hit: 0 Tlb_miss: 0 Tlb_hit_rate: -nan
Shader23: Tlb_access: 0 Tlb_hit: 0 Tlb_miss: 0 Tlb_hit_rate: -nan
Shader24: Tlb_access: 0 Tlb_hit: 0 Tlb_miss: 0 Tlb_hit_rate: -nan
Shader25: Tlb_access: 0 Tlb_hit: 0 Tlb_miss: 0 Tlb_hit_rate: -nan
Shader26: Tlb_access: 0 Tlb_hit: 0 Tlb_miss: 0 Tlb_hit_rate: -nan
Shader27: Tlb_access: 0 Tlb_hit: 0 Tlb_miss: 0 Tlb_hit_rate: -nan
Tlb_tot_access: 0 Tlb_tot_hit: 0, Tlb_tot_miss: 0, Tlb_tot_hit_rate: -nan
========================================TLB statistics(validate)==============================
Shader0: Tlb_validate: 0 Tlb_invalidate: 0 Tlb_evict: 0 Tlb_page_evict: 0
Shader1: Tlb_validate: 0 Tlb_invalidate: 0 Tlb_evict: 0 Tlb_page_evict: 0
Shader2: Tlb_validate: 0 Tlb_invalidate: 0 Tlb_evict: 0 Tlb_page_evict: 0
Shader3: Tlb_validate: 0 Tlb_invalidate: 0 Tlb_evict: 0 Tlb_page_evict: 0
Shader4: Tlb_validate: 0 Tlb_invalidate: 0 Tlb_evict: 0 Tlb_page_evict: 0
Shader5: Tlb_validate: 0 Tlb_invalidate: 0 Tlb_evict: 0 Tlb_page_evict: 0
Shader6: Tlb_validate: 0 Tlb_invalidate: 0 Tlb_evict: 0 Tlb_page_evict: 0
Shader7: Tlb_validate: 0 Tlb_invalidate: 0 Tlb_evict: 0 Tlb_page_evict: 0
Shader8: Tlb_validate: 0 Tlb_invalidate: 0 Tlb_evict: 0 Tlb_page_evict: 0
Shader9: Tlb_validate: 0 Tlb_invalidate: 0 Tlb_evict: 0 Tlb_page_evict: 0
Shader10: Tlb_validate: 0 Tlb_invalidate: 0 Tlb_evict: 0 Tlb_page_evict: 0
Shader11: Tlb_validate: 0 Tlb_invalidate: 0 Tlb_evict: 0 Tlb_page_evict: 0
Shader12: Tlb_validate: 0 Tlb_invalidate: 0 Tlb_evict: 0 Tlb_page_evict: 0
Shader13: Tlb_validate: 0 Tlb_invalidate: 0 Tlb_evict: 0 Tlb_page_evict: 0
Shader14: Tlb_validate: 0 Tlb_invalidate: 0 Tlb_evict: 0 Tlb_page_evict: 0
Shader15: Tlb_validate: 0 Tlb_invalidate: 0 Tlb_evict: 0 Tlb_page_evict: 0
Shader16: Tlb_validate: 0 Tlb_invalidate: 0 Tlb_evict: 0 Tlb_page_evict: 0
Shader17: Tlb_validate: 0 Tlb_invalidate: 0 Tlb_evict: 0 Tlb_page_evict: 0
Shader18: Tlb_validate: 0 Tlb_invalidate: 0 Tlb_evict: 0 Tlb_page_evict: 0
Shader19: Tlb_validate: 0 Tlb_invalidate: 0 Tlb_evict: 0 Tlb_page_evict: 0
Shader20: Tlb_validate: 0 Tlb_invalidate: 0 Tlb_evict: 0 Tlb_page_evict: 0
Shader21: Tlb_validate: 0 Tlb_invalidate: 0 Tlb_evict: 0 Tlb_page_evict: 0
Shader22: Tlb_validate: 0 Tlb_invalidate: 0 Tlb_evict: 0 Tlb_page_evict: 0
Shader23: Tlb_validate: 0 Tlb_invalidate: 0 Tlb_evict: 0 Tlb_page_evict: 0
Shader24: Tlb_validate: 0 Tlb_invalidate: 0 Tlb_evict: 0 Tlb_page_evict: 0
Shader25: Tlb_validate: 0 Tlb_invalidate: 0 Tlb_evict: 0 Tlb_page_evict: 0
Shader26: Tlb_validate: 0 Tlb_invalidate: 0 Tlb_evict: 0 Tlb_page_evict: 0
Shader27: Tlb_validate: 0 Tlb_invalidate: 0 Tlb_evict: 0 Tlb_page_evict: 0
Tlb_tot_valiate: 0 Tlb_invalidate: 0, Tlb_tot_evict: 0, Tlb_tot_evict page: 0
========================================TLB statistics(thrashing)==============================
Shader0: Total 0
Shader1: Total 0
Shader2: Total 0
Shader3: Total 0
Shader4: Total 0
Shader5: Total 0
Shader6: Total 0
Shader7: Total 0
Shader8: Total 0
Shader9: Total 0
Shader10: Total 0
Shader11: Total 0
Shader12: Total 0
Shader13: Total 0
Shader14: Total 0
Shader15: Total 0
Shader16: Total 0
Shader17: Total 0
Shader18: Total 0
Shader19: Total 0
Shader20: Total 0
Shader21: Total 0
Shader22: Total 0
Shader23: Total 0
Shader24: Total 0
Shader25: Total 0
Shader26: Total 0
Shader27: Total 0
Tlb_tot_thrash: 0
========================================Page fault statistics==============================
Shader0: Page_table_access:0 Page_hit: 0 Page_miss: 0 Page_hit_rate: -nan
Shader1: Page_table_access:0 Page_hit: 0 Page_miss: 0 Page_hit_rate: -nan
Shader2: Page_table_access:0 Page_hit: 0 Page_miss: 0 Page_hit_rate: -nan
Shader3: Page_table_access:0 Page_hit: 0 Page_miss: 0 Page_hit_rate: -nan
Shader4: Page_table_access:0 Page_hit: 0 Page_miss: 0 Page_hit_rate: -nan
Shader5: Page_table_access:0 Page_hit: 0 Page_miss: 0 Page_hit_rate: -nan
Shader6: Page_table_access:0 Page_hit: 0 Page_miss: 0 Page_hit_rate: -nan
Shader7: Page_table_access:0 Page_hit: 0 Page_miss: 0 Page_hit_rate: -nan
Shader8: Page_table_access:0 Page_hit: 0 Page_miss: 0 Page_hit_rate: -nan
Shader9: Page_table_access:0 Page_hit: 0 Page_miss: 0 Page_hit_rate: -nan
Shader10: Page_table_access:0 Page_hit: 0 Page_miss: 0 Page_hit_rate: -nan
Shader11: Page_table_access:0 Page_hit: 0 Page_miss: 0 Page_hit_rate: -nan
Shader12: Page_table_access:0 Page_hit: 0 Page_miss: 0 Page_hit_rate: -nan
Shader13: Page_table_access:0 Page_hit: 0 Page_miss: 0 Page_hit_rate: -nan
Shader14: Page_table_access:0 Page_hit: 0 Page_miss: 0 Page_hit_rate: -nan
Shader15: Page_table_access:0 Page_hit: 0 Page_miss: 0 Page_hit_rate: -nan
Shader16: Page_table_access:0 Page_hit: 0 Page_miss: 0 Page_hit_rate: -nan
Shader17: Page_table_access:0 Page_hit: 0 Page_miss: 0 Page_hit_rate: -nan
Shader18: Page_table_access:0 Page_hit: 0 Page_miss: 0 Page_hit_rate: -nan
Shader19: Page_table_access:0 Page_hit: 0 Page_miss: 0 Page_hit_rate: -nan
Shader20: Page_table_access:0 Page_hit: 0 Page_miss: 0 Page_hit_rate: -nan
Shader21: Page_table_access:0 Page_hit: 0 Page_miss: 0 Page_hit_rate: -nan
Shader22: Page_table_access:0 Page_hit: 0 Page_miss: 0 Page_hit_rate: -nan
Shader23: Page_table_access:0 Page_hit: 0 Page_miss: 0 Page_hit_rate: -nan
Shader24: Page_table_access:0 Page_hit: 0 Page_miss: 0 Page_hit_rate: -nan
Shader25: Page_table_access:0 Page_hit: 0 Page_miss: 0 Page_hit_rate: -nan
Shader26: Page_table_access:0 Page_hit: 0 Page_miss: 0 Page_hit_rate: -nan
Shader27: Page_table_access:0 Page_hit: 0 Page_miss: 0 Page_hit_rate: -nan
Page_table_tot_access: 0 Page_tot_hit: 0, Page_tot_miss 0, Page_tot_hit_rate: -nan Page_tot_fault: 0 Page_tot_pending: 0
Total_memory_access_page_fault: 0, Average_latency: 0.000000
========================================Page thrashing statistics==============================
Page_validate: 0 Page_evict_dirty: 0 Page_evict_not_dirty: 0
Page_tot_thrash: 0
========================================Memory access statistics==============================
========================================Prefetch statistics==============================
Tot_page_hit: 0, Tot_page_miss: 0, Tot_page_fault: 0
Avg_page_latency: 0.000000, Avg_prefetch_size: -nan, Avg_prefetch_latency: 0.000000
========================================Rdma statistics==============================
dma_read: 0
dma_migration_read 0
dma_migration_write 0
========================================PCI-e statistics==============================
Pcie_read_utilization: 0.000000
[0-25]: -nan, [26-50]: -nan, [51-75]: -nan, [76-100]: -nan
Pcie_write_utilization: 0.000000
[0-25]: -nan, [26-50]: -nan, [51-75]: -nan, [76-100]: -nan
F:        0----T:     2535 	 St: 80000000 Sz: 48 	 Sm: 0 	 T: memcpy_h2d(1.711681)
F:     2536----T:     5071 	 St: 80000100 Sz: 80 	 Sm: 0 	 T: memcpy_h2d(1.711681)
F:     5072----T:     7607 	 St: 80000200 Sz: 6 	 Sm: 0 	 T: memcpy_h2d(1.711681)
F:     7608----T:    10143 	 St: 80000300 Sz: 6 	 Sm: 0 	 T: memcpy_h2d(1.711681)
F:    10144----T:    12679 	 St: 80000400 Sz: 6 	 Sm: 0 	 T: memcpy_h2d(1.711681)
F:    12680----T:    15215 	 St: 80000500 Sz: 24 	 Sm: 0 	 T: memcpy_h2d(1.711681)
F:    15216----T:    17751 	 St: 80000600 Sz: 1 	 Sm: 0 	 T: memcpy_h2d(1.711681)
F:    17752----T:    20170 	 	 	 Kl: 1 	 Sm: 0 	 T: kernel_launch(1.632681)
F:    20170----T:    20541 	 	 	 Kl: 2 	 Sm: 0 	 T: kernel_launch(0.250506)
Tot_prefetch_time: 0(cycle), 0.000000(us)
Tot_kernel_exec_time: 5207(cycle), 3.515868(us)
Tot_kernel_exec_time_and_fault_time: 5207(cycle), 3.515868(us)
Tot_memcpy_h2d_time: 35490(cycle), 23.963537(us)
Tot_memcpy_d2h_time: 0(cycle), 0.000000(us)
Tot_memcpy_time: 35490(cycle), 23.963537(us)
Tot_devicesync_time: 0(cycle), 0.000000(us)
Tot_writeback_time: 0(cycle), 0.000000(us)
Tot_dma_time: 0(cycle), 0.000000(us)
Tot_memcpy_d2h_sync_wb_time: 0(cycle), 0.000000(us)
----------------------------Interconnect-DETAILS--------------------------------
Class 0:
Packet latency average = 6.6
	minimum = 6
	maximum = 8
Network latency average = 6.6
	minimum = 6
	maximum = 8
Slowest packet = 54
Flit latency average = 6.13333
	minimum = 6
	maximum = 7
Slowest flit = 82
Fragmentation average = 0
	minimum = 0
	maximum = 0
Injected packet rate average = 0.000269906
	minimum = 0 (at node 0)
	maximum = 0.00674764 (at node 1)
Accepted packet rate average = 0.000269906
	minimum = 0 (at node 0)
	maximum = 0.00674764 (at node 1)
Injected flit rate average = 0.000404858
	minimum = 0 (at node 0)
	maximum = 0.0121457 (at node 1)
Accepted flit rate average= 0.000404858
	minimum = 0 (at node 0)
	maximum = 0.00809717 (at node 1)
Injected packet length average = 1.5
Accepted packet length average = 1.5
Total in-flight flits = 0 (0 measured)
====== Overall Traffic Statistics ======
====== Traffic class 0 ======
Packet latency average = 6.64 (2 samples)
	minimum = 6 (2 samples)
	maximum = 8 (2 samples)
Network latency average = 6.64 (2 samples)
	minimum = 6 (2 samples)
	maximum = 8 (2 samples)
Flit latency average = 6.14667 (2 samples)
	minimum = 6 (2 samples)
	maximum = 7 (2 samples)
Fragmentation average = 0 (2 samples)
	minimum = 0 (2 samples)
	maximum = 0 (2 samples)
Injected packet rate average = 0.000238387 (2 samples)
	minimum = 0 (2 samples)
	maximum = 0.00595967 (2 samples)
Accepted packet rate average = 0.000238387 (2 samples)
	minimum = 0 (2 samples)
	maximum = 0.00595967 (2 samples)
Injected flit rate average = 0.00035758 (2 samples)
	minimum = 0 (2 samples)
	maximum = 0.00938276 (2 samples)
Accepted flit rate average = 0.00035758 (2 samples)
	minimum = 0 (2 samples)
	maximum = 0.00849625 (2 samples)
Injected packet size average = 1.5 (2 samples)
Accepted packet size average = 1.5 (2 samples)
Hops average = 1 (2 samples)
----------------------------END-of-Interconnect-DETAILS-------------------------


gpgpu_simulation_time = 0 days, 0 hrs, 0 min, 1 sec (1 sec)
gpgpu_simulation_rate = 328 (inst/sec)
gpgpu_simulation_rate = 20541 (cycle/sec)
gpgpu_silicon_slowdown = 72099x
GPGPU-Sim: *** simulation thread starting and spinning waiting for work ***


GPGPU-Sim PTX: CUDA API function "cudaError_t cudaMemcpyInternal(void*, const void*, size_t, cudaMemcpyKind, gpgpu_context*)" has been called.
GPGPU-Sim PTX: cudaMemcpy(): devPtr = 0x7fffe8ffffeb
GPGPU-Sim API: Stream Manager State
GPGPU-Sim API:    stream 0 has 1 operations
GPGPU-Sim API:       0 :  stream operation memcpy device-to-host
GPGPU-Sim: ** START simulation thread (detected work) **
GPGPU-Sim API: Stream Manager State
GPGPU-Sim API:    stream 0 has 1 operations
GPGPU-Sim API:       0 :  stream operation memcpy device-to-host
GPGPU-Sim API: stream 0 performing memcpy device-to-host
GPGPU-Sim PTX: copying 1 bytes from GPU[0x80000600] to CPU[0x7fffe8ffffeb] ... done.
GPGPU-Sim: ** STOP simulation thread (no work) **
GPGPU-Sim: *** simulation thread starting and spinning waiting for work ***


GPGPU-Sim PTX: CUDA API function "cudaError_t cudaMemcpyInternal(void*, const void*, size_t, cudaMemcpyKind, gpgpu_context*)" has been called.
GPGPU-Sim PTX: cudaMemcpy(): devPtr = 0x80000600
GPGPU-Sim API: Stream Manager State
GPGPU-Sim API:    stream 0 has 1 operations
GPGPU-Sim API:       0 :  stream operation memcpy host-to-device
GPGPU-Sim: ** START simulation thread (detected work) **
GPGPU-Sim API: Stream Manager State
GPGPU-Sim API:    stream 0 has 1 operations
GPGPU-Sim API:       0 :  stream operation memcpy host-to-device
GPGPU-Sim API: stream 0 performing memcpy host-to-device
GPGPU-Sim PTX: copying 1 bytes from CPU[0x7fffe8ffffeb] to GPU[0x80000600] ...  done.
GPGPU-Sim: ** STOP simulation thread (no work) **
GPGPU-Sim: *** simulation thread starting and spinning waiting for work ***


GPGPU-Sim PTX: CUDA API function "cudaError_t cudaConfigureCallInternal(dim3, dim3, size_t, cudaStream_t, gpgpu_context*)" has been called.


GPGPU-Sim PTX: CUDA API function "cudaError_t cudaSetupArgumentInternal(const void*, size_t, size_t, gpgpu_context*)" has been called.
GPGPU-Sim PTX: Setting up arguments for 8 bytes starting at 0x7fffe8ffff58..


GPGPU-Sim PTX: CUDA API function "cudaError_t cudaSetupArgumentInternal(const void*, size_t, size_t, gpgpu_context*)" has been called.
GPGPU-Sim PTX: Setting up arguments for 8 bytes starting at 0x7fffe8ffff50..


GPGPU-Sim PTX: CUDA API function "cudaError_t cudaSetupArgumentInternal(const void*, size_t, size_t, gpgpu_context*)" has been called.
GPGPU-Sim PTX: Setting up arguments for 8 bytes starting at 0x7fffe8ffff48..


GPGPU-Sim PTX: CUDA API function "cudaError_t cudaSetupArgumentInternal(const void*, size_t, size_t, gpgpu_context*)" has been called.
GPGPU-Sim PTX: Setting up arguments for 8 bytes starting at 0x7fffe8ffff40..


GPGPU-Sim PTX: CUDA API function "cudaError_t cudaSetupArgumentInternal(const void*, size_t, size_t, gpgpu_context*)" has been called.
GPGPU-Sim PTX: Setting up arguments for 8 bytes starting at 0x7fffe8ffff38..


GPGPU-Sim PTX: CUDA API function "cudaError_t cudaSetupArgumentInternal(const void*, size_t, size_t, gpgpu_context*)" has been called.
GPGPU-Sim PTX: Setting up arguments for 8 bytes starting at 0x7fffe8ffff30..


GPGPU-Sim PTX: CUDA API function "cudaError_t cudaSetupArgumentInternal(const void*, size_t, size_t, gpgpu_context*)" has been called.
GPGPU-Sim PTX: Setting up arguments for 4 bytes starting at 0x7fffe8ffff70..


GPGPU-Sim PTX: CUDA API function "cudaError_t cudaLaunchInternal(const char*, gpgpu_context*)" has been called.

GPGPU-Sim PTX: cudaLaunch for 0x0x562eb10f3997 (mode=performance simulation) on stream 0


GPGPU-Sim PTX: CUDA API function "kernel_info_t* cuda_runtime_api::gpgpu_cuda_ptx_sim_init_grid(const char*, gpgpu_ptx_sim_arg_list_t, dim3, dim3, CUctx_st*, const gpgpu_sim_config&)" has been called.
GPGPU-Sim PTX: PDOM analysis already done for _Z6KernelP4NodePiPbS2_S2_S1_i 
GPGPU-Sim PTX: pushing kernel '_Z6KernelP4NodePiPbS2_S2_S1_i' to stream 0, gridDim= (1,1,1) blockDim = (6,1,1) 
GPGPU-Sim API: Stream Manager State
GPGPU-Sim API:    stream 0 has 1 operations
GPGPU-Sim API:       0 :  stream operation kernel
GPGPU-Sim: ** START simulation thread (detected work) **
GPGPU-Sim API: Stream Manager State
GPGPU-Sim API:    stream 0 has 1 operations
GPGPU-Sim API:       0 :  stream operation kernel
GPGPU-Sim API: stream 0 performing kernel 3: '_Z6KernelP4NodePiPbS2_S2_S1_i' transfer to GPU hardware scheduler
GPGPU-Sim uArch: Shader 2 bind to kernel 3 '_Z6KernelP4NodePiPbS2_S2_S1_i'
GPGPU-Sim uArch: CTA/core = 32, limited by: cta_limit
  <CTA alloc> : sm_idx=2 sid=2 max_cta_per_sm=341
