

        *** GPGPU-Sim Simulator Version 4.0.0  [build gpgpu-sim_git-commit-_modified_] ***


GPGPU-Sim PTX: simulation mode 0 (can change with PTX_SIM_MODE_FUNC environment variable:
               1=functional simulation only, 0=detailed performance simulator)
GPGPU-Sim PTX: overriding embedded ptx with ptx file (PTX_SIM_USE_PTX_FILE is set)
GPGPU-Sim: Configuration options:

-save_embedded_ptx                      0 # saves ptx files embedded in binary as <n>.ptx
-keep                                   0 # keep intermediate files created by GPGPU-Sim when interfacing with external programs
-gpgpu_ptx_save_converted_ptxplus                    0 # Saved converted ptxplus to a file
-gpgpu_occupancy_sm_number                   70 # The SM number to pass to ptxas when getting register usage for computing GPU occupancy. This parameter is required in the config.
-ptx_opcode_latency_int         4,13,4,5,145 # Opcode latencies for integers <ADD,MAX,MUL,MAD,DIV>Default 1,1,19,25,145
-ptx_opcode_latency_fp          4,13,4,5,39 # Opcode latencies for single precision floating points <ADD,MAX,MUL,MAD,DIV>Default 1,1,1,1,30
-ptx_opcode_latency_dp         8,19,8,8,330 # Opcode latencies for double precision floating points <ADD,MAX,MUL,MAD,DIV>Default 8,8,8,8,335
-ptx_opcode_latency_sfu                  100 # Opcode latencies for SFU instructionsDefault 8
-ptx_opcode_latency_tesnor                   64 # Opcode latencies for Tensor instructionsDefault 64
-ptx_opcode_initiation_int            2,2,2,2,8 # Opcode initiation intervals for integers <ADD,MAX,MUL,MAD,DIV>Default 1,1,4,4,32
-ptx_opcode_initiation_fp            2,2,2,2,4 # Opcode initiation intervals for single precision floating points <ADD,MAX,MUL,MAD,DIV>Default 1,1,1,1,5
-ptx_opcode_initiation_dp          4,4,4,4,130 # Opcode initiation intervals for double precision floating points <ADD,MAX,MUL,MAD,DIV>Default 8,8,8,8,130
-ptx_opcode_initiation_sfu                    8 # Opcode initiation intervals for sfu instructionsDefault 8
-ptx_opcode_initiation_tensor                   64 # Opcode initiation intervals for tensor instructionsDefault 64
-cdp_latency         7200,8000,100,12000,1600 # CDP API latency <cudaStreamCreateWithFlags, cudaGetParameterBufferV2_init_perWarp, cudaGetParameterBufferV2_perKernel, cudaLaunchDeviceV2_init_perWarp, cudaLaunchDevicV2_perKernel>Default 7200,8000,100,12000,1600
-network_mode                           1 # Interconnection network mode
-inter_config_file   config_volta_islip.icnt # Interconnection network config file
-inct_in_buffer_limit                   64 # in_buffer_limit
-inct_out_buffer_limit                   64 # out_buffer_limit
-inct_subnets                           2 # subnets
-gpgpu_ptx_use_cuobjdump                    1 # Use cuobjdump to extract ptx and sass from binaries
-gpgpu_experimental_lib_support                    0 # Try to extract code from cuda libraries [Broken because of unknown cudaGetExportTable]
-checkpoint_option                      0 #  checkpointing flag (0 = no checkpoint)
-checkpoint_kernel                      1 #  checkpointing during execution of which kernel (1- 1st kernel)
-checkpoint_CTA                         0 #  checkpointing after # of CTA (< less than total CTA)
-resume_option                          0 #  resume flag (0 = no resume)
-resume_kernel                          0 #  Resume from which kernel (1= 1st kernel)
-resume_CTA                             0 #  resume from which CTA 
-checkpoint_CTA_t                       0 #  resume from which CTA 
-checkpoint_insn_Y                      0 #  resume from which CTA 
-gpgpu_ptx_convert_to_ptxplus                    0 # Convert SASS (native ISA) to ptxplus and run ptxplus
-gpgpu_ptx_force_max_capability                   70 # Force maximum compute capability
-gpgpu_ptx_inst_debug_to_file                    0 # Dump executed instructions' debug information to file
-gpgpu_ptx_inst_debug_file       inst_debug.txt # Executed instructions' debug output file
-gpgpu_ptx_inst_debug_thread_uid                    1 # Thread UID for executed instructions' debug output
-gpgpu_simd_model                       1 # 1 = post-dominator
-gpgpu_shader_core_pipeline              2048:32 # shader core pipeline config, i.e., {<nthread>:<warpsize>}
-gpgpu_tex_cache:l1  N:16:128:24,L:R:m:N:L,T:128:4,128:2 # per-shader L1 texture cache  (READ-ONLY) config  {<nsets>:<bsize>:<assoc>,<rep>:<wr>:<alloc>:<wr_alloc>,<mshr>:<N>:<merge>,<mq>:<rf>}
-gpgpu_const_cache:l1 N:128:64:8,L:R:f:N:L,S:2:64,4 # per-shader L1 constant memory cache  (READ-ONLY) config  {<nsets>:<bsize>:<assoc>,<rep>:<wr>:<alloc>:<wr_alloc>,<mshr>:<N>:<merge>,<mq>} 
-gpgpu_cache:il1     N:64:128:16,L:R:f:N:L,S:2:48,4 # shader L1 instruction cache config  {<nsets>:<bsize>:<assoc>,<rep>:<wr>:<alloc>:<wr_alloc>,<mshr>:<N>:<merge>,<mq>} 
-gpgpu_cache:dl1     S:4:128:64,L:L:s:N:L,A:256:8,16:0,32 # per-shader L1 data cache config  {<nsets>:<bsize>:<assoc>,<rep>:<wr>:<alloc>:<wr_alloc>,<mshr>:<N>:<merge>,<mq> | none}
-l1_latency                            28 # L1 Hit Latency
-smem_latency                          19 # smem Latency
-gpgpu_cache:dl1PrefL1                 none # per-shader L1 data cache config  {<nsets>:<bsize>:<assoc>,<rep>:<wr>:<alloc>:<wr_alloc>,<mshr>:<N>:<merge>,<mq> | none}
-gpgpu_cache:dl1PrefShared                 none # per-shader L1 data cache config  {<nsets>:<bsize>:<assoc>,<rep>:<wr>:<alloc>:<wr_alloc>,<mshr>:<N>:<merge>,<mq> | none}
-gmem_skip_L1D                          0 # global memory access skip L1D cache (implements -Xptxas -dlcm=cg, default=no skip)
-gpgpu_perfect_mem                      0 # enable perfect memory mode (no cache miss)
-n_regfile_gating_group                    4 # group of lanes that should be read/written together)
-gpgpu_clock_gated_reg_file                    0 # enable clock gated reg file for power calculations
-gpgpu_clock_gated_lanes                    0 # enable clock gated lanes for power calculations
-gpgpu_shader_registers                65536 # Number of registers per shader core. Limits number of concurrent CTAs. (default 8192)
-gpgpu_registers_per_block                 8192 # Maximum number of registers per CTA. (default 8192)
-gpgpu_ignore_resources_limitation                    0 # gpgpu_ignore_resources_limitation (default 0)
-gpgpu_shader_cta                      32 # Maximum number of concurrent CTAs in shader (default 8)
-gpgpu_num_cta_barriers                   16 # Maximum number of named barriers per CTA (default 16)
-gpgpu_n_clusters                      16 # number of processing clusters
-gpgpu_n_cores_per_cluster                    2 # number of simd cores per cluster
-gpgpu_n_cluster_ejection_buffer_size                   32 # number of packets in ejection buffer
-gpgpu_n_ldst_response_buffer_size                    2 # number of response packets in ld/st unit ejection buffer
-gpgpu_shmem_per_block                49152 # Size of shared memory per thread block or CTA (default 48kB)
-gpgpu_shmem_size                   16384 # Size of shared memory per shader core (default 16kB)
-adaptive_volta_cache_config                    1 # adaptive_volta_cache_config
-gpgpu_shmem_size                   98304 # Size of shared memory per shader core (default 16kB)
-gpgpu_shmem_size_PrefL1                16384 # Size of shared memory per shader core (default 16kB)
-gpgpu_shmem_size_PrefShared                16384 # Size of shared memory per shader core (default 16kB)
-gpgpu_shmem_num_banks                   32 # Number of banks in the shared memory in each shader core (default 16)
-gpgpu_shmem_limited_broadcast                    0 # Limit shared memory to do one broadcast per cycle (default on)
-gpgpu_shmem_warp_parts                    1 # Number of portions a warp is divided into for shared memory bank conflict check 
-mem_unit_ports                         4 # The number of memory transactions allowed per core cycle
-gpgpu_shmem_warp_parts                    1 # Number of portions a warp is divided into for shared memory bank conflict check 
-gpgpu_warpdistro_shader                   -1 # Specify which shader core to collect the warp size distribution from
-gpgpu_warp_issue_shader                    0 # Specify which shader core to collect the warp issue distribution from
-gpgpu_local_mem_map                    1 # Mapping from local memory space address to simulated GPU physical address space (default = enabled)
-gpgpu_num_reg_banks                    8 # Number of register banks (default = 8)
-gpgpu_reg_bank_use_warp_id                    0 # Use warp ID in mapping registers to banks (default = off)
-sub_core_model                         1 # Sub Core Volta/Pascal model (default = off)
-enable_specialized_operand_collector                    0 # enable_specialized_operand_collector
-gpgpu_operand_collector_num_units_sp                    4 # number of collector units (default = 4)
-gpgpu_operand_collector_num_units_dp                    0 # number of collector units (default = 0)
-gpgpu_operand_collector_num_units_sfu                    4 # number of collector units (default = 4)
-gpgpu_operand_collector_num_units_int                    0 # number of collector units (default = 0)
-gpgpu_operand_collector_num_units_tensor_core                    4 # number of collector units (default = 4)
-gpgpu_operand_collector_num_units_mem                    2 # number of collector units (default = 2)
-gpgpu_operand_collector_num_units_gen                    8 # number of collector units (default = 0)
-gpgpu_operand_collector_num_in_ports_sp                    1 # number of collector unit in ports (default = 1)
-gpgpu_operand_collector_num_in_ports_dp                    0 # number of collector unit in ports (default = 0)
-gpgpu_operand_collector_num_in_ports_sfu                    1 # number of collector unit in ports (default = 1)
-gpgpu_operand_collector_num_in_ports_int                    0 # number of collector unit in ports (default = 0)
-gpgpu_operand_collector_num_in_ports_tensor_core                    1 # number of collector unit in ports (default = 1)
-gpgpu_operand_collector_num_in_ports_mem                    1 # number of collector unit in ports (default = 1)
-gpgpu_operand_collector_num_in_ports_gen                    8 # number of collector unit in ports (default = 0)
-gpgpu_operand_collector_num_out_ports_sp                    1 # number of collector unit in ports (default = 1)
-gpgpu_operand_collector_num_out_ports_dp                    0 # number of collector unit in ports (default = 0)
-gpgpu_operand_collector_num_out_ports_sfu                    1 # number of collector unit in ports (default = 1)
-gpgpu_operand_collector_num_out_ports_int                    0 # number of collector unit in ports (default = 0)
-gpgpu_operand_collector_num_out_ports_tensor_core                    1 # number of collector unit in ports (default = 1)
-gpgpu_operand_collector_num_out_ports_mem                    1 # number of collector unit in ports (default = 1)
-gpgpu_operand_collector_num_out_ports_gen                    8 # number of collector unit in ports (default = 0)
-gpgpu_coalesce_arch                   60 # Coalescing arch (GT200 = 13, Fermi = 20)
-gpgpu_num_sched_per_core                    4 # Number of warp schedulers per core
-gpgpu_max_insn_issue_per_warp                    1 # Max number of instructions that can be issued per warp in one cycle by scheduler (either 1 or 2)
-gpgpu_dual_issue_diff_exec_units                    1 # should dual issue use two different execution unit resources (Default = 1)
-gpgpu_simt_core_sim_order                    1 # Select the simulation order of cores in a cluster (0=Fix, 1=Round-Robin)
-gpgpu_pipeline_widths 4,4,4,4,4,4,4,4,4,4,8,4,4 # Pipeline widths ID_OC_SP,ID_OC_DP,ID_OC_INT,ID_OC_SFU,ID_OC_MEM,OC_EX_SP,OC_EX_DP,OC_EX_INT,OC_EX_SFU,OC_EX_MEM,EX_WB,ID_OC_TENSOR_CORE,OC_EX_TENSOR_CORE
-gpgpu_tensor_core_avail                    1 # Tensor Core Available (default=0)
-gpgpu_num_sp_units                     4 # Number of SP units (default=1)
-gpgpu_num_dp_units                     4 # Number of DP units (default=0)
-gpgpu_num_int_units                    4 # Number of INT units (default=0)
-gpgpu_num_sfu_units                    4 # Number of SF units (default=1)
-gpgpu_num_tensor_core_units                    4 # Number of tensor_core units (default=1)
-gpgpu_num_mem_units                    1 # Number if ldst units (default=1) WARNING: not hooked up to anything
-gpgpu_scheduler                      gto # Scheduler configuration: < lrr | gto | two_level_active > If two_level_active:<num_active_warps>:<inner_prioritization>:<outer_prioritization>For complete list of prioritization values see shader.h enum scheduler_prioritization_typeDefault: gto
-gpgpu_concurrent_kernel_sm                    0 # Support concurrent kernels on a SM (default = disabled)
-perf_sim_memcpy                        1 # Fill the L2 cache on memcpy
-gpgpu_dram_scheduler                    1 # 0 = fifo, 1 = FR-FCFS (defaul)
-gpgpu_dram_partition_queues          64:64:64:64 # i2$:$2d:d2$:$2i
-l2_ideal                               0 # Use a ideal L2 cache that always hit
-gpgpu_cache:dl2     S:32:128:24,L:B:m:L:L,A:192:4,32:0,32 # unified banked L2 data cache config  {<nsets>:<bsize>:<assoc>,<rep>:<wr>:<alloc>:<wr_alloc>,<mshr>:<N>:<merge>,<mq>}
-gpgpu_cache:dl2_texture_only                    0 # L2 cache used for texture only
-gpgpu_n_mem                           32 # number of memory modules (e.g. memory controllers) in gpu
-gpgpu_n_sub_partition_per_mchannel                    2 # number of memory subpartition in each memory module
-gpgpu_n_mem_per_ctrlr                    1 # number of memory chips per memory controller
-gpgpu_memlatency_stat                   14 # track and display latency statistics 0x2 enables MC, 0x4 enables queue logs
-gpgpu_frfcfs_dram_sched_queue_size                   64 # 0 = unlimited (default); # entries per chip
-gpgpu_dram_return_queue_size                  192 # 0 = unlimited (default); # entries per chip
-gpgpu_dram_buswidth                   16 # default = 4 bytes (8 bytes per cycle at DDR)
-gpgpu_dram_burst_length                    2 # Burst length of each DRAM request (default = 4 data bus cycle)
-dram_data_command_freq_ratio                    2 # Frequency ratio between DRAM data bus and command bus (default = 2 times, i.e. DDR)
-gpgpu_dram_timing_opt nbk=16:CCD=1:RRD=3:RCD=12:RAS=28:RP=12:RC=40: CL=12:WL=2:CDLR=3:WR=10:nbkgrp=4:CCDL=2:RTPL=3 # DRAM timing parameters = {nbk:tCCD:tRRD:tRCD:tRAS:tRP:tRC:CL:WL:tCDLR:tWR:nbkgrp:tCCDL:tRTPL}
-rop_latency                          120 # ROP queue latency (default 85)
-dram_latency                         100 # DRAM latency (default 30)
-dual_bus_interface                     1 # dual_bus_interface (default = 0) 
-dram_bnk_indexing_policy                    0 # dram_bnk_indexing_policy (0 = normal indexing, 1 = Xoring with the higher bits) (Default = 0)
-dram_bnkgrp_indexing_policy                    1 # dram_bnkgrp_indexing_policy (0 = take higher bits, 1 = take lower bits) (Default = 0)
-Seperate_Write_Queue_Enable                    0 # Seperate_Write_Queue_Enable
-Write_Queue_Size                32:28:16 # Write_Queue_Size
-Elimnate_rw_turnaround                    0 # elimnate_rw_turnaround i.e set tWTR and tRTW = 0
-icnt_flit_size                        40 # icnt_flit_size
-gpgpu_mem_addr_mapping dramid@8;00000000.00000000.00000000.00000000.0000RRRR.RRRRRRRR.RBBBCCCB.CCCSSSSS # mapping memory address to dram model {dramid@<start bit>;<memory address map>}
-gpgpu_mem_addr_test                    0 # run sweep test to check address mapping for aliased address
-gpgpu_mem_address_mask                    1 # 0 = old addressing mask, 1 = new addressing mask, 2 = new add. mask + flipped bank sel and chip sel bits
-memory_partition_indexing                    0 # 0 = no indexing, 1 = bitwise xoring, 2 = IPoly, 3 = custom indexing
-gpuwattch_xml_file  gpuwattch_gtx1080Ti_to_volta.xml # GPUWattch XML file
-power_simulation_enabled                    1 # Turn on power simulator (1=On, 0=Off)
-power_per_cycle_dump                    0 # Dump detailed power output each cycle
-power_trace_enabled                    0 # produce a file for the power trace (1=On, 0=Off)
-power_trace_zlevel                     6 # Compression level of the power trace output log (0=no comp, 9=highest)
-steady_power_levels_enabled                    0 # produce a file for the steady power levels (1=On, 0=Off)
-steady_state_definition                  8:4 # allowed deviation:number of samples
-gpgpu_max_cycle                        0 # terminates gpu simulation early (0 = no limit)
-gpgpu_max_insn                         0 # terminates gpu simulation early (0 = no limit)
-gpgpu_max_cta                          0 # terminates gpu simulation early (0 = no limit)
-gpgpu_runtime_stat                   500 # display runtime statistics such as dram utilization {<freq>:<flag>}
-liveness_message_freq                    1 # Minimum number of seconds between simulation liveness messages (0 = always print)
-gpgpu_compute_capability_major                    7 # Major compute capability version number
-gpgpu_compute_capability_minor                    0 # Minor compute capability version number
-gpgpu_flush_l1_cache                    1 # Flush L1 cache at the end of each kernel call
-gpgpu_flush_l2_cache                    0 # Flush L2 cache at the end of each kernel call
-gpgpu_deadlock_detect                    1 # Stop the simulation at deadlock (1=on (default), 0=off)
-gpgpu_ptx_instruction_classification                    0 # if enabled will classify ptx instruction types per kernel (Max 255 kernels now)
-gpgpu_ptx_sim_mode                     0 # Select between Performance (default) or Functional simulation (1)
-gpgpu_clock_domains 1455.0:1455.0:1455.0:850.0 # Clock Domain Frequencies in MhZ {<Core Clock>:<ICNT Clock>:<L2 Clock>:<DRAM Clock>}
-gpgpu_max_concurrent_kernel                    8 # maximum kernels that can run concurrently on GPU
-gpgpu_cflog_interval                    0 # Interval between each snapshot in control flow logger
-visualizer_enabled                     0 # Turn on visualizer output (1=On, 0=Off)
-visualizer_outputfile                 NULL # Specifies the output log file for visualizer
-visualizer_zlevel                      6 # Compression level of the visualizer output log (0=no comp, 9=highest)
-gpgpu_stack_size_limit                 1024 # GPU thread stack size
-gpgpu_heap_size_limit              8388608 # GPU malloc heap size 
-gpgpu_runtime_sync_depth_limit                    2 # GPU device runtime synchronize depth
-gpgpu_runtime_pending_launch_count_limit                 2048 # GPU device runtime pending launch count
-trace_enabled                          0 # Turn on traces
-trace_components                    none # comma seperated list of traces to enable. Complete list found in trace_streams.tup. Default none
-trace_sampling_core                    0 # The core which is printed using CORE_DPRINTF. Default 0
-trace_sampling_memory_partition                   -1 # The memory partition which is printed using MEMPART_DPRINTF. Default -1 (i.e. all)
-enable_ptx_file_line_stats                    1 # Turn on PTX source line statistic profiling. (1 = On)
-ptx_line_stats_filename gpgpu_inst_stats.txt # Output file for PTX source line statistics.
-gpgpu_kernel_launch_latency                    0 # Kernel launch latency in cycles. Default: 0
-gpgpu_cdp_enabled                      0 # Turn on CDP
DRAM Timing Options:
nbk                                    16 # number of banks
CCD                                     1 # column to column delay
RRD                                     3 # minimal delay between activation of rows in different banks
RCD                                    12 # row to column delay
RAS                                    28 # time needed to activate row
RP                                     12 # time needed to precharge (deactivate) row
RC                                     40 # row cycle time
CDLR                                    3 # switching from write to read (changes tWTR)
WR                                     10 # last data-in to row precharge
CL                                     12 # CAS latency
WL                                      2 # Write latency
nbkgrp                                  4 # number of bank groups
CCDL                                    2 # column to column delay between accesses to different bank groups
RTPL                                    3 # read to precharge delay between accesses to different bank groups
Total number of memory sub partition = 64
addr_dec_mask[CHIP]  = 0000000000001f00 	high:13 low:8
addr_dec_mask[BK]    = 00000000000e2000 	high:20 low:13
addr_dec_mask[ROW]   = 00000001fff00000 	high:33 low:20
addr_dec_mask[COL]   = 000000000001c0ff 	high:17 low:0
addr_dec_mask[BURST] = 000000000000001f 	high:5 low:0
sub_partition_id_mask = 0000000000002000
GPGPU-Sim uArch: clock freqs: 1455000000.000000:1455000000.000000:1455000000.000000:850000000.000000
GPGPU-Sim uArch: clock periods: 0.00000000068728522337:0.00000000068728522337:0.00000000068728522337:0.00000000117647058824
*** Initializing Memory Statistics ***
GPGPU-Sim uArch: interconnect node map (shaderID+MemID to icntID)
GPGPU-Sim uArch: Memory nodes ID start from index: 16
GPGPU-Sim uArch:    0   1   2   3   4   5   6   7
GPGPU-Sim uArch:    8   9  10  11  12  13  14  15
GPGPU-Sim uArch:   16  17  18  19  20  21  22  23
GPGPU-Sim uArch:   24  25  26  27  28  29  30  31
GPGPU-Sim uArch:   32  33  34  35  36  37  38  39
GPGPU-Sim uArch:   40  41  42  43  44  45  46  47
GPGPU-Sim uArch:   48  49  50  51  52  53  54  55
GPGPU-Sim uArch:   56  57  58  59  60  61  62  63
GPGPU-Sim uArch:   64  65  66  67  68  69  70  71
GPGPU-Sim uArch:   72  73  74  75  76  77  78  79
GPGPU-Sim uArch: interconnect node reverse map (icntID to shaderID+MemID)
GPGPU-Sim uArch: Memory nodes start from ID: 16
GPGPU-Sim uArch:    0   1   2   3   4   5   6   7
GPGPU-Sim uArch:    8   9  10  11  12  13  14  15
GPGPU-Sim uArch:   16  17  18  19  20  21  22  23
GPGPU-Sim uArch:   24  25  26  27  28  29  30  31
GPGPU-Sim uArch:   32  33  34  35  36  37  38  39
GPGPU-Sim uArch:   40  41  42  43  44  45  46  47
GPGPU-Sim uArch:   48  49  50  51  52  53  54  55
GPGPU-Sim uArch:   56  57  58  59  60  61  62  63
GPGPU-Sim uArch:   64  65  66  67  68  69  70  71
GPGPU-Sim uArch:   72  73  74  75  76  77  78  79
acfad532b36bf3d6bee3aca2b2068a7d  /home/seongguk/rodinia_3.1_dev/bin/linux/cuda/backprop
Extracting PTX file and ptxas options    1: backprop.1.sm_30.ptx -arch=sm_30
GPGPU-Sim uArch: performance model initialization complete.
self exe links to: /home/seongguk/rodinia_3.1_dev/bin/linux/cuda/backprop
self exe links to: /home/seongguk/rodinia_3.1_dev/bin/linux/cuda/backprop
9.1
GPGPU-Sim PTX: __cudaRegisterFatBinary, fat_cubin_handle = 1, filename=default
self exe links to: /home/seongguk/rodinia_3.1_dev/bin/linux/cuda/backprop
Running md5sum using "md5sum /home/seongguk/rodinia_3.1_dev/bin/linux/cuda/backprop "
self exe links to: /home/seongguk/rodinia_3.1_dev/bin/linux/cuda/backprop
Extracting specific PTX file named backprop.1.sm_30.ptx 
GPGPU-Sim PTX: __cudaRegisterFunction _Z24bpnn_adjust_weights_cudaPfiS_iS_S_ : hostFun 0x0x402350, fat_cubin_handle = 1
GPGPU-Sim PTX: Parsing backprop.1.sm_30.ptx
GPGPU-Sim PTX: allocating shared region for "_Z22bpnn_layerforward_CUDAPfS_S_S_ii$__cuda_local_var_17647_34_non_const_input_node" from 0x0 to 0x40 (shared memory space)
GPGPU-Sim PTX: allocating shared region for "_Z22bpnn_layerforward_CUDAPfS_S_S_ii$__cuda_local_var_17648_34_non_const_weight_matrix" from 0x80 to 0x480 (shared memory space)
GPGPU-Sim PTX: instruction assembly for function '_Z22bpnn_layerforward_CUDAPfS_S_S_ii'...   done.
GPGPU-Sim PTX: instruction assembly for function '_Z24bpnn_adjust_weights_cudaPfiS_iS_S_'...   done.
GPGPU-Sim PTX: finished parsing EMBEDDED .ptx file backprop.1.sm_30.ptx
GPGPU-Sim PTX: loading globals with explicit initializers... 
GPGPU-Sim PTX: finished loading globals (0 bytes total).
GPGPU-Sim PTX: loading constants with explicit initializers...  done.
GPGPU-Sim PTX: Loading PTXInfo from backprop.1.sm_30.ptx
GPGPU-Sim PTX: Kernel '_Z24bpnn_adjust_weights_cudaPfiS_iS_S_' : regs=21, lmem=0, smem=0, cmem=376
GPGPU-Sim PTX: Kernel '_Z22bpnn_layerforward_CUDAPfS_S_S_ii' : regs=14, lmem=0, smem=1088, cmem=360
GPGPU-Sim PTX: __cudaRegisterFunction _Z22bpnn_layerforward_CUDAPfS_S_S_ii : hostFun 0x0x402270, fat_cubin_handle = 1
Random number generator seed: 7
Input layer size : 524288
Starting training kernel
Performing GPU computation
GPGPU-Sim PTX: Setting up arguments for 8 bytes starting at 0x7ffee78b5598..
GPGPU-Sim PTX: Setting up arguments for 8 bytes starting at 0x7ffee78b5590..
GPGPU-Sim PTX: Setting up arguments for 8 bytes starting at 0x7ffee78b5588..
GPGPU-Sim PTX: Setting up arguments for 8 bytes starting at 0x7ffee78b5580..
GPGPU-Sim PTX: Setting up arguments for 4 bytes starting at 0x7ffee78b557c..
GPGPU-Sim PTX: Setting up arguments for 4 bytes starting at 0x7ffee78b5578..

GPGPU-Sim PTX: cudaLaunch for 0x0x402270 (mode=performance simulation) on stream 0
GPGPU-Sim PTX: finding reconvergence points for '_Z22bpnn_layerforward_CUDAPfS_S_S_ii'...
GPGPU-Sim PTX: Finding dominators for '_Z22bpnn_layerforward_CUDAPfS_S_S_ii'...
GPGPU-Sim PTX: Finding immediate dominators for '_Z22bpnn_layerforward_CUDAPfS_S_S_ii'...
GPGPU-Sim PTX: Finding postdominators for '_Z22bpnn_layerforward_CUDAPfS_S_S_ii'...
GPGPU-Sim PTX: Finding immediate postdominators for '_Z22bpnn_layerforward_CUDAPfS_S_S_ii'...
GPGPU-Sim PTX: pre-decoding instructions for '_Z22bpnn_layerforward_CUDAPfS_S_S_ii'...
GPGPU-Sim PTX: reconvergence points for _Z22bpnn_layerforward_CUDAPfS_S_S_ii...
GPGPU-Sim PTX:  1 (potential) branch divergence @  PC=0x068 (backprop.1.sm_30.ptx:48) @%p2 bra BB0_2;
GPGPU-Sim PTX:    immediate post dominator      @  PC=0x098 (backprop.1.sm_30.ptx:57) cvta.to.global.u64 %rd1, %rd4;
GPGPU-Sim PTX:  2 (potential) branch divergence @  PC=0x150 (backprop.1.sm_30.ptx:80) @%p3 bra BB0_7;
GPGPU-Sim PTX:    immediate post dominator      @  PC=0x228 (backprop.1.sm_30.ptx:115) setp.eq.s32%p1, %r4, 0;
GPGPU-Sim PTX:  3 (potential) branch divergence @  PC=0x1a0 (backprop.1.sm_30.ptx:93) @%p4 bra BB0_6;
GPGPU-Sim PTX:    immediate post dominator      @  PC=0x200 (backprop.1.sm_30.ptx:108) bar.sync 0;
GPGPU-Sim PTX:  4 (potential) branch divergence @  PC=0x220 (backprop.1.sm_30.ptx:112) @%p5 bra BB0_4;
GPGPU-Sim PTX:    immediate post dominator      @  PC=0x228 (backprop.1.sm_30.ptx:115) setp.eq.s32%p1, %r4, 0;
GPGPU-Sim PTX:  5 (potential) branch divergence @  PC=0x248 (backprop.1.sm_30.ptx:119) @!%p1 bra BB0_9;
GPGPU-Sim PTX:    immediate post dominator      @  PC=0x290 (backprop.1.sm_30.ptx:132) ret;
GPGPU-Sim PTX:  6 (potential) branch divergence @  PC=0x250 (backprop.1.sm_30.ptx:120) bra.uni BB0_8;
GPGPU-Sim PTX:    immediate post dominator      @  PC=0x258 (backprop.1.sm_30.ptx:123) cvta.to.global.u64 %rd10, %rd5;
GPGPU-Sim PTX: ... end of reconvergence points for _Z22bpnn_layerforward_CUDAPfS_S_S_ii
GPGPU-Sim PTX: ... done pre-decoding instructions for '_Z22bpnn_layerforward_CUDAPfS_S_S_ii'.
GPGPU-Sim PTX: pushing kernel '_Z22bpnn_layerforward_CUDAPfS_S_S_ii' to stream 0, gridDim= (1,32768,1) blockDim = (16,16,1) 
GPGPU-Sim uArch: Shader 0 bind to kernel 1 '_Z22bpnn_layerforward_CUDAPfS_S_S_ii'
GPGPU-Sim uArch: CTA/core = 8, limited by: threads
GPGPU-Sim: Reconfigure L1 cache in Volta Archi to 112KB
GPGPU-Sim uArch: Shader 2 bind to kernel 1 '_Z22bpnn_layerforward_CUDAPfS_S_S_ii'
GPGPU-Sim uArch: Shader 4 bind to kernel 1 '_Z22bpnn_layerforward_CUDAPfS_S_S_ii'
GPGPU-Sim uArch: Shader 6 bind to kernel 1 '_Z22bpnn_layerforward_CUDAPfS_S_S_ii'
GPGPU-Sim uArch: Shader 8 bind to kernel 1 '_Z22bpnn_layerforward_CUDAPfS_S_S_ii'
GPGPU-Sim uArch: Shader 10 bind to kernel 1 '_Z22bpnn_layerforward_CUDAPfS_S_S_ii'
GPGPU-Sim uArch: Shader 12 bind to kernel 1 '_Z22bpnn_layerforward_CUDAPfS_S_S_ii'
GPGPU-Sim uArch: Shader 14 bind to kernel 1 '_Z22bpnn_layerforward_CUDAPfS_S_S_ii'
GPGPU-Sim uArch: Shader 16 bind to kernel 1 '_Z22bpnn_layerforward_CUDAPfS_S_S_ii'
GPGPU-Sim uArch: Shader 18 bind to kernel 1 '_Z22bpnn_layerforward_CUDAPfS_S_S_ii'
GPGPU-Sim uArch: Shader 20 bind to kernel 1 '_Z22bpnn_layerforward_CUDAPfS_S_S_ii'
GPGPU-Sim uArch: Shader 22 bind to kernel 1 '_Z22bpnn_layerforward_CUDAPfS_S_S_ii'
GPGPU-Sim uArch: Shader 24 bind to kernel 1 '_Z22bpnn_layerforward_CUDAPfS_S_S_ii'
GPGPU-Sim uArch: Shader 26 bind to kernel 1 '_Z22bpnn_layerforward_CUDAPfS_S_S_ii'
GPGPU-Sim uArch: Shader 28 bind to kernel 1 '_Z22bpnn_layerforward_CUDAPfS_S_S_ii'
GPGPU-Sim uArch: Shader 30 bind to kernel 1 '_Z22bpnn_layerforward_CUDAPfS_S_S_ii'
GPGPU-Sim uArch: Shader 1 bind to kernel 1 '_Z22bpnn_layerforward_CUDAPfS_S_S_ii'
GPGPU-Sim uArch: Shader 3 bind to kernel 1 '_Z22bpnn_layerforward_CUDAPfS_S_S_ii'
GPGPU-Sim uArch: Shader 5 bind to kernel 1 '_Z22bpnn_layerforward_CUDAPfS_S_S_ii'
GPGPU-Sim uArch: Shader 7 bind to kernel 1 '_Z22bpnn_layerforward_CUDAPfS_S_S_ii'
GPGPU-Sim uArch: Shader 9 bind to kernel 1 '_Z22bpnn_layerforward_CUDAPfS_S_S_ii'
GPGPU-Sim uArch: Shader 11 bind to kernel 1 '_Z22bpnn_layerforward_CUDAPfS_S_S_ii'
GPGPU-Sim uArch: Shader 13 bind to kernel 1 '_Z22bpnn_layerforward_CUDAPfS_S_S_ii'
GPGPU-Sim uArch: Shader 15 bind to kernel 1 '_Z22bpnn_layerforward_CUDAPfS_S_S_ii'
GPGPU-Sim uArch: Shader 17 bind to kernel 1 '_Z22bpnn_layerforward_CUDAPfS_S_S_ii'
GPGPU-Sim uArch: Shader 19 bind to kernel 1 '_Z22bpnn_layerforward_CUDAPfS_S_S_ii'
GPGPU-Sim uArch: Shader 21 bind to kernel 1 '_Z22bpnn_layerforward_CUDAPfS_S_S_ii'
GPGPU-Sim uArch: Shader 23 bind to kernel 1 '_Z22bpnn_layerforward_CUDAPfS_S_S_ii'
GPGPU-Sim uArch: Shader 25 bind to kernel 1 '_Z22bpnn_layerforward_CUDAPfS_S_S_ii'
GPGPU-Sim uArch: Shader 27 bind to kernel 1 '_Z22bpnn_layerforward_CUDAPfS_S_S_ii'
GPGPU-Sim uArch: Shader 29 bind to kernel 1 '_Z22bpnn_layerforward_CUDAPfS_S_S_ii'
GPGPU-Sim uArch: Shader 31 bind to kernel 1 '_Z22bpnn_layerforward_CUDAPfS_S_S_ii'
Destroy streams for kernel 1: size 0
kernel_name = _Z22bpnn_layerforward_CUDAPfS_S_S_ii 
kernel_launch_uid = 1 
gpu_sim_cycle = 556254
gpu_sim_insn = 839385088
gpu_ipc =    1508.9961
gpu_tot_sim_cycle = 556254
gpu_tot_sim_insn = 839385088
gpu_tot_ipc =    1508.9961
gpu_tot_issued_cta = 32768
gpu_occupancy = 99.1886% 
gpu_tot_occupancy = 99.1886% 
max_total_param_size = 0
gpu_stall_dramfull = 388
gpu_stall_icnt2sh    = 0
partiton_level_parallism =       5.0616
partiton_level_parallism_total  =       5.0616
partiton_level_parallism_util =       5.3286
partiton_level_parallism_util_total  =       5.3286
L2_BW  =     235.7204 GB/Sec
L2_BW_total  =     235.7204 GB/Sec
gpu_total_sim_rate=184886

========= Core cache stats =========
L1I_cache:
	L1I_total_cache_accesses = 17629184
	L1I_total_cache_misses = 8885
	L1I_total_cache_miss_rate = 0.0005
	L1I_total_cache_pending_hits = 0
	L1I_total_cache_reservation_fails = 42147
L1D_cache:
	L1D_cache_core[0]: Access = 200802, Miss = 129144, Miss_rate = 0.643, Pending_hits = 0, Reservation_fails = 19
	L1D_cache_core[1]: Access = 200900, Miss = 129241, Miss_rate = 0.643, Pending_hits = 0, Reservation_fails = 191
	L1D_cache_core[2]: Access = 200802, Miss = 129158, Miss_rate = 0.643, Pending_hits = 0, Reservation_fails = 0
	L1D_cache_core[3]: Access = 200606, Miss = 129061, Miss_rate = 0.643, Pending_hits = 0, Reservation_fails = 0
	L1D_cache_core[4]: Access = 200802, Miss = 129177, Miss_rate = 0.643, Pending_hits = 0, Reservation_fails = 212
	L1D_cache_core[5]: Access = 200900, Miss = 129252, Miss_rate = 0.643, Pending_hits = 0, Reservation_fails = 209
	L1D_cache_core[6]: Access = 200606, Miss = 129040, Miss_rate = 0.643, Pending_hits = 0, Reservation_fails = 172
	L1D_cache_core[7]: Access = 200900, Miss = 129236, Miss_rate = 0.643, Pending_hits = 0, Reservation_fails = 342
	L1D_cache_core[8]: Access = 200410, Miss = 128928, Miss_rate = 0.643, Pending_hits = 0, Reservation_fails = 179
	L1D_cache_core[9]: Access = 200312, Miss = 128880, Miss_rate = 0.643, Pending_hits = 0, Reservation_fails = 172
	L1D_cache_core[10]: Access = 200802, Miss = 129159, Miss_rate = 0.643, Pending_hits = 0, Reservation_fails = 97
	L1D_cache_core[11]: Access = 200802, Miss = 129161, Miss_rate = 0.643, Pending_hits = 0, Reservation_fails = 331
	L1D_cache_core[12]: Access = 200508, Miss = 128980, Miss_rate = 0.643, Pending_hits = 0, Reservation_fails = 283
	L1D_cache_core[13]: Access = 200802, Miss = 129193, Miss_rate = 0.643, Pending_hits = 0, Reservation_fails = 260
	L1D_cache_core[14]: Access = 200508, Miss = 128975, Miss_rate = 0.643, Pending_hits = 0, Reservation_fails = 248
	L1D_cache_core[15]: Access = 200802, Miss = 129158, Miss_rate = 0.643, Pending_hits = 0, Reservation_fails = 234
	L1D_total_cache_accesses = 3211264
	L1D_total_cache_misses = 2065743
	L1D_total_cache_miss_rate = 0.6433
	L1D_total_cache_pending_hits = 0
	L1D_total_cache_reservation_fails = 2949
	L1D_cache_data_port_util = 0.016
	L1D_cache_fill_port_util = 0.017
L1C_cache:
	L1C_total_cache_accesses = 1048576
	L1C_total_cache_misses = 2048
	L1C_total_cache_miss_rate = 0.0020
	L1C_total_cache_pending_hits = 0
	L1C_total_cache_reservation_fails = 31516
L1T_cache:
	L1T_total_cache_accesses = 0
	L1T_total_cache_misses = 0
	L1T_total_cache_pending_hits = 0
	L1T_total_cache_reservation_fails = 0

Total_core_cache_stats:
	Total_core_cache_stats_breakdown[GLOBAL_ACC_R][HIT] = 1
	Total_core_cache_stats_breakdown[GLOBAL_ACC_R][HIT_RESERVED] = 0
	Total_core_cache_stats_breakdown[GLOBAL_ACC_R][MISS] = 862680
	Total_core_cache_stats_breakdown[GLOBAL_ACC_R][RESERVATION_FAIL] = 2949
	Total_core_cache_stats_breakdown[GLOBAL_ACC_R][SECTOR_MISS] = 775719
	Total_core_cache_stats_breakdown[LOCAL_ACC_R][HIT] = 0
	Total_core_cache_stats_breakdown[LOCAL_ACC_R][HIT_RESERVED] = 0
	Total_core_cache_stats_breakdown[LOCAL_ACC_R][MISS] = 0
	Total_core_cache_stats_breakdown[LOCAL_ACC_R][RESERVATION_FAIL] = 0
	Total_core_cache_stats_breakdown[LOCAL_ACC_R][SECTOR_MISS] = 0
	Total_core_cache_stats_breakdown[CONST_ACC_R][HIT] = 1046528
	Total_core_cache_stats_breakdown[CONST_ACC_R][HIT_RESERVED] = 0
	Total_core_cache_stats_breakdown[CONST_ACC_R][MISS] = 2048
	Total_core_cache_stats_breakdown[CONST_ACC_R][RESERVATION_FAIL] = 31516
	Total_core_cache_stats_breakdown[CONST_ACC_R][SECTOR_MISS] = 0
	Total_core_cache_stats_breakdown[TEXTURE_ACC_R][HIT] = 0
	Total_core_cache_stats_breakdown[TEXTURE_ACC_R][HIT_RESERVED] = 0
	Total_core_cache_stats_breakdown[TEXTURE_ACC_R][MISS] = 0
	Total_core_cache_stats_breakdown[TEXTURE_ACC_R][RESERVATION_FAIL] = 0
	Total_core_cache_stats_breakdown[TEXTURE_ACC_R][SECTOR_MISS] = 0
	Total_core_cache_stats_breakdown[GLOBAL_ACC_W][HIT] = 1145520
	Total_core_cache_stats_breakdown[GLOBAL_ACC_W][HIT_RESERVED] = 0
	Total_core_cache_stats_breakdown[GLOBAL_ACC_W][MISS] = 408407
	Total_core_cache_stats_breakdown[GLOBAL_ACC_W][RESERVATION_FAIL] = 0
	Total_core_cache_stats_breakdown[GLOBAL_ACC_W][SECTOR_MISS] = 18937
	Total_core_cache_stats_breakdown[LOCAL_ACC_W][HIT] = 0
	Total_core_cache_stats_breakdown[LOCAL_ACC_W][HIT_RESERVED] = 0
	Total_core_cache_stats_breakdown[LOCAL_ACC_W][MISS] = 0
	Total_core_cache_stats_breakdown[LOCAL_ACC_W][RESERVATION_FAIL] = 0
	Total_core_cache_stats_breakdown[LOCAL_ACC_W][SECTOR_MISS] = 0
	Total_core_cache_stats_breakdown[L1_WRBK_ACC][HIT] = 0
	Total_core_cache_stats_breakdown[L1_WRBK_ACC][HIT_RESERVED] = 0
	Total_core_cache_stats_breakdown[L1_WRBK_ACC][MISS] = 0
	Total_core_cache_stats_breakdown[L1_WRBK_ACC][RESERVATION_FAIL] = 0
	Total_core_cache_stats_breakdown[L1_WRBK_ACC][SECTOR_MISS] = 0
	Total_core_cache_stats_breakdown[L2_WRBK_ACC][HIT] = 0
	Total_core_cache_stats_breakdown[L2_WRBK_ACC][HIT_RESERVED] = 0
	Total_core_cache_stats_breakdown[L2_WRBK_ACC][MISS] = 0
	Total_core_cache_stats_breakdown[L2_WRBK_ACC][RESERVATION_FAIL] = 0
	Total_core_cache_stats_breakdown[L2_WRBK_ACC][SECTOR_MISS] = 0
	Total_core_cache_stats_breakdown[INST_ACC_R][HIT] = 17620299
	Total_core_cache_stats_breakdown[INST_ACC_R][HIT_RESERVED] = 0
	Total_core_cache_stats_breakdown[INST_ACC_R][MISS] = 8885
	Total_core_cache_stats_breakdown[INST_ACC_R][RESERVATION_FAIL] = 42147
	Total_core_cache_stats_breakdown[INST_ACC_R][SECTOR_MISS] = 0
	Total_core_cache_stats_breakdown[L1_WR_ALLOC_R][HIT] = 0
	Total_core_cache_stats_breakdown[L1_WR_ALLOC_R][HIT_RESERVED] = 0
	Total_core_cache_stats_breakdown[L1_WR_ALLOC_R][MISS] = 0
	Total_core_cache_stats_breakdown[L1_WR_ALLOC_R][RESERVATION_FAIL] = 0
	Total_core_cache_stats_breakdown[L1_WR_ALLOC_R][SECTOR_MISS] = 0
	Total_core_cache_stats_breakdown[L2_WR_ALLOC_R][HIT] = 0
	Total_core_cache_stats_breakdown[L2_WR_ALLOC_R][HIT_RESERVED] = 0
	Total_core_cache_stats_breakdown[L2_WR_ALLOC_R][MISS] = 0
	Total_core_cache_stats_breakdown[L2_WR_ALLOC_R][RESERVATION_FAIL] = 0
	Total_core_cache_stats_breakdown[L2_WR_ALLOC_R][SECTOR_MISS] = 0
	Total_core_cache_stats_breakdown[GLOBAL_ACC_R][TOTAL_ACCESS] = 1638400
	Total_core_cache_stats_breakdown[CONST_ACC_R][TOTAL_ACCESS] = 1048576
	Total_core_cache_stats_breakdown[GLOBAL_ACC_W][TOTAL_ACCESS] = 1572864
	Total_core_cache_stats_breakdown[INST_ACC_R][TOTAL_ACCESS] = 17629184

Total_core_cache_fail_stats:
	Total_core_cache_fail_stats_breakdown[GLOBAL_ACC_R][MISS_QUEUE_FULL] = 2949
	Total_core_cache_fail_stats_breakdown[CONST_ACC_R][MSHR_MERGE_ENRTY_FAIL] = 31516
	Total_core_cache_fail_stats_breakdown[INST_ACC_R][MSHR_MERGE_ENRTY_FAIL] = 42147
Shader 0 warp_id issue ditsribution:
warp_id:
0, 1, 2, 3, 4, 5, 6, 7, 8, 9, 10, 11, 12, 13, 14, 15, 16, 17, 18, 19, 20, 21, 22, 23, 24, 25, 26, 27, 28, 29, 30, 31, 32, 33, 34, 35, 36, 37, 38, 39, 40, 41, 42, 43, 44, 45, 46, 47, 48, 49, 50, 51, 52, 53, 54, 55, 56, 57, 58, 59, 60, 61, 62, 63, 
distro:
19221, 14964, 16383, 14964, 17802, 14964, 16383, 14964, 19072, 14848, 16256, 14848, 17664, 14848, 16256, 14848, 19072, 14848, 16256, 14848, 17664, 14848, 16256, 14848, 19221, 14964, 16383, 14964, 17802, 14964, 16383, 14964, 19072, 14848, 16256, 14848, 17664, 14848, 16256, 14848, 19072, 14848, 16256, 14848, 17664, 14848, 16256, 14848, 19072, 14848, 16256, 14848, 17664, 14848, 16256, 14848, 19072, 14848, 16256, 14848, 17664, 14848, 16256, 14848, 
gpgpu_n_tot_thrd_icount = 1053818880
gpgpu_n_tot_w_icount = 32931840
gpgpu_n_stall_shd_mem = 2195309
gpgpu_n_mem_read_local = 0
gpgpu_n_mem_write_local = 0
gpgpu_n_mem_read_global = 1242464
gpgpu_n_mem_write_global = 1572864
gpgpu_n_mem_texture = 0
gpgpu_n_mem_const = 32
gpgpu_n_load_insn  = 8912896
gpgpu_n_store_insn = 8912896
gpgpu_n_shmem_insn = 66584576
gpgpu_n_sstarr_insn = 0
gpgpu_n_tex_insn = 0
gpgpu_n_const_mem_insn = 0
gpgpu_n_param_mem_insn = 33554432
gpgpu_n_shmem_bkconflict = 0
gpgpu_n_cache_bkconflict = 0
gpgpu_n_intrawarp_mshr_merge = 0
gpgpu_n_cmem_portconflict = 31516
gpgpu_stall_shd_mem[c_mem][resource_stall] = 31516
gpgpu_stall_shd_mem[s_mem][bk_conf] = 0
gpgpu_stall_shd_mem[gl_mem][resource_stall] = 1105
gpgpu_stall_shd_mem[gl_mem][coal_stall] = 2162688
gpgpu_stall_shd_mem[gl_mem][data_port_stall] = 0
gpu_reg_bank_conflict_stalls = 0
Warp Occupancy Distribution:
Stall:810993	W0_Idle:2272447	W0_Scoreboard:35055908	W1:0	W2:3407872	W3:0	W4:0	W5:0	W6:0	W7:0	W8:0	W9:0	W10:0	W11:0	W12:0	W13:0	W14:0	W15:0	W16:5406720	W17:0	W18:0	W19:0	W20:0	W21:0	W22:0	W23:0	W24:0	W25:0	W26:0	W27:0	W28:0	W29:0	W30:0	W31:0	W32:24117248
single_issue_nums: WS0:9404416	WS1:7602176	WS2:8323072	WS3:7602176	
dual_issue_nums: WS0:0	WS1:0	WS2:0	WS3:0	
traffic_breakdown_coretomem[CONST_ACC_R] = 256 {8:32,}
traffic_breakdown_coretomem[GLOBAL_ACC_R] = 9939712 {8:1242464,}
traffic_breakdown_coretomem[GLOBAL_ACC_W] = 62914560 {40:1572864,}
traffic_breakdown_coretomem[INST_ACC_R] = 1536 {8:192,}
traffic_breakdown_memtocore[CONST_ACC_R] = 2560 {40:64,}
traffic_breakdown_memtocore[GLOBAL_ACC_R] = 49698560 {40:1242464,}
traffic_breakdown_memtocore[GLOBAL_ACC_W] = 12582912 {8:1572864,}
traffic_breakdown_memtocore[INST_ACC_R] = 30720 {40:768,}
maxmflatency = 879 
max_icnt2mem_latency = 452 
maxmrqlatency = 596 
max_icnt2sh_latency = 280 
averagemflatency = 237 
avg_icnt2mem_latency = 32 
avg_mrq_latency = 25 
avg_icnt2sh_latency = 13 
mrq_lat_table:189999 	393538 	204422 	113279 	66461 	278124 	135094 	46583 	249 	8 	0 	0 	0 	0 	0 	0 	0 	0 	0 	0 	0 	0 	0 	0 	0 	0 	0 	0 	0 	0 	0 	0 	
dq_lat_table:0 	0 	0 	0 	0 	0 	0 	0 	0 	0 	0 	0 	0 	0 	0 	0 	0 	0 	0 	0 	0 	0 	0 	0 	0 	0 	0 	0 	0 	0 	0 	0 	
mf_lat_table:0 	0 	0 	0 	0 	0 	0 	1564188 	1244708 	6496 	0 	0 	0 	0 	0 	0 	0 	0 	0 	0 	0 	0 	0 	0 	0 	0 	0 	0 	0 	0 	0 	0 	
icnt2mem_lat_table:0 	0 	99 	327776 	1475939 	814053 	174048 	19740 	3897 	0 	0 	0 	0 	0 	0 	0 	0 	0 	0 	0 	0 	0 	0 	0 	
icnt2sh_lat_table:0 	0 	1251962 	971454 	348974 	191756 	48000 	3223 	23 	0 	0 	0 	0 	0 	0 	0 	0 	0 	0 	0 	0 	0 	0 	0 	
mf_lat_pw_table:0 	0 	0 	0 	0 	0 	0 	831 	263 	1 	0 	0 	0 	0 	0 	0 	0 	0 	0 	0 	0 	0 	0 	0 	0 	0 	0 	0 	0 	0 	0 	0 	
maximum concurrent accesses to same row:
dram[0]:        64        64        64        64        64        64        64        64        64        64        64        64        64        64        64        64 
dram[1]:        64        64        64        64        64        64        64        64        64        64        64        64        64        64        64        64 
dram[2]:        64        64        64        64        64        64        64        64        64        64        64        64        64        64        64        64 
dram[3]:        64        64        64        64        64        64        64        64        64        64        64        64        64        64        64        64 
dram[4]:        64        64        64        64        64        64        64        64        64        64        64        64        64        64        64        64 
dram[5]:        64        64        64        64        64        64        64        64        64        64        64        64        64        64        64        64 
dram[6]:        64        64        64        64        64        64        64        64        64        64        64        64        64        64        64        64 
dram[7]:        64        64        64        64        64        64        64        64        64        64        64        64        64        64        64        64 
dram[8]:        64        64        64        64        64        64        64        64        64        64        64        64        64        64        64        64 
dram[9]:        64        64        64        64        64        64        64        64        64        64        64        64        64        64        64        64 
dram[10]:        64        64        64        64        64        64        64        64        64        64        64        64        64        64        64        64 
dram[11]:        64        64        64        64        64        64        64        64        64        64        64        64        64        64        64        64 
dram[12]:        64        64        64        64        64        64        64        64        64        64        64        64        64        64        64        64 
dram[13]:        64        64        64        64        64        64        64        64        64        64        64        64        64        64        64        64 
dram[14]:        64        64        64        64        64        64        64        64        64        64        64        64        64        64        64        64 
dram[15]:        64        64        64        64        64        64        64        64        64        64        64        64        64        64        64        64 
dram[16]:        64        64        64        64        64        64        64        64        64        64        64        64        64        64        64        64 
dram[17]:        64        64        64        64        64        64        64        64        64        64        64        64        64        64        64        64 
dram[18]:        64        64        64        64        64        64        64        64        64        64        64        64        64        64        64        64 
dram[19]:        64        64        64        64        64        64        64        64        64        64        64        64        64        64        64        64 
dram[20]:        64        64        64        64        64        64        64        64        64        64        64        64        64        64        64        64 
dram[21]:        64        64        64        64        64        64        64        64        64        64        64        64        64        64        64        64 
dram[22]:        64        64        64        64        64        64        64        64        64        64        64        64        64        64        64        64 
dram[23]:        64        64        64        64        64        64        64        64        64        64        64        64        64        64        64        64 
dram[24]:        64        64        64        64        64        64        64        64        64        64        64        64        64        64        64        64 
dram[25]:        64        64        64        64        64        64        64        64        64        64        64        64        64        64        64        64 
dram[26]:        64        64        64        64        64        64        64        64        64        64        64        64        64        64        64        64 
dram[27]:        64        64        64        64        64        64        64        64        64        64        64        64        64        64        64        64 
dram[28]:        64        64        64        64        64        64        64        64        64        64        64        64        64        64        64        64 
dram[29]:        64        64        64        64        64        64        64        64        64        64        64        64        64        64        64        64 
dram[30]:        64        64        64        64        64        64        64        64        64        64        64        64        64        64        64        64 
dram[31]:        64        64        64        64        64        64        64        64        64        64        64        64        64        64        64        64 
maximum service time to same row:
dram[0]:     17011     17000     18357     18307     18394     18437     17227     17181     17477     17258     17128     17083     17138     17156     17079     17044 
dram[1]:     16971     16994     18331     18308     18332     18377     17218     17222     17482     17259     17125     17095     17126     17177     17064     17048 
dram[2]:     16967     17087     18312     18384     18349     18373     17229     17215     17466     17289     17133     17093     17159     17187     17068     17056 
dram[3]:     17091     17031     18322     18405     18309     18375     17225     17225     17424     17305     17132     17092     17178     17187     17071     17104 
dram[4]:     17096     17015     18368     18460     18473     18431     17190     17249     17411     17310     17133     17088     17165     17198     17098     17098 
dram[5]:     17087     17015     18327     18451     18485     18421     17161     17233     17320     17305     17120     17091     17210     17200     17096     17137 
dram[6]:     17094     17012     18290     18552     18558     18409     17145     17229     17325     17312     17063     17057     17205     17173     17141     17144 
dram[7]:     17082     16952     18350     18513     18529     18423     17133     17147     17388     17294     17044     17089     17267     17112     17149     17073 
dram[8]:     17197     16942     18331     18494     18491     18470     17152     17092     17347     17365     17094     17088     17240     17104     17151     17101 
dram[9]:     17174     16941     18331     18504     18478     18361     17128     17068     17308     17658     17091     17102     17188     17104     17092     17108 
dram[10]:     17171     16942     18345     18550     18457     18328     17115     17316     17282     17655     17088     17092     17179     17089     17089     17068 
dram[11]:     17190     16960     18352     18571     18475     18341     17111     17327     17417     17655     17096     17115     17200     17096     17081     17052 
dram[12]:     17188     17011     18357     18547     18516     18349     17225     17316     17349     17638     17092     17066     17206     17134     17250     17056 
dram[13]:     17080     17002     18290     18469     18484     18357     17238     17321     17338     17629     17130     17063     17253     17145     17164     17144 
dram[14]:     17074     17210     18286     18511     18499     18423     17195     17316     17325     17265     17115     17075     17263     17182     17150     17118 
dram[15]:     17064     17106     18274     18529     18493     18378     17202     17316     17300     17213     17130     17171     17246     17240     17156     17100 
dram[16]:     17115     17198     18275     18483     18366     18380     17282     17299     17328     17214     17065     17076     17194     17257     17153     17115 
dram[17]:     17191     17048     18280     18469     18345     18453     17291     17314     17334     17621     17060     17092     17244     17290     17058     17117 
dram[18]:     17177     17046     18270     18458     18373     18461     17289     17280     17342     17633     17062     17195     17246     17171     17066     16996 
dram[19]:     17172     17056     18263     18497     18393     18556     17294     17257     17431     17632     17069     17135     17257     17143     17082     17013 
dram[20]:     17181     17145     18279     18424     18409     18528     17295     17158     17446     17639     17079     17123     17311     17163     17074     17069 
dram[21]:     17178     17061     18337     18422     18412     18544     17375     17189     17493     17638     17074     17125     17202     17160     17041     17080 
dram[22]:     17073     17047     18344     18425     18412     18475     17299     17209     17482     17426     17056     17241     17194     17230     17046     17104 
dram[23]:     17066     17080     18324     18418     18427     18475     17271     17300     17489     17437     17063     17256     17197     17220     17051     17084 
dram[24]:     17063     16974     18316     18369     18369     18477     17287     17292     17258     17299     17116     17253     17194     17150     17050     17083 
dram[25]:     17172     16957     18314     18357     18360     18480     17256     17280     17238     17323     17188     17254     17197     17180     17157     17082 
dram[26]:     17123     16919     18328     18381     18363     18347     17165     17266     17240     17515     17090     17273     17229     17194     17070     17144 
dram[27]:     17100     16947     18318     18405     18369     18352     17075     17399     17243     17477     17101     17246     17224     17131     17062     17082 
dram[28]:     17091     16882     18319     18380     18388     18349     17063     17408     17442     17453     17087     17147     17300     17151     17061     17059 
dram[29]:     17088     16849     18339     18376     18382     18363     17178     17399     17281     17448     17123     17126     17167     17243     17061     17063 
dram[30]:     17014     16818     18357     18376     18389     18466     17175     17404     17273     17528     17117     17126     17161     17268     17034     17065 
dram[31]:     16991     16839     18313     18379     18391     18515     17178     17420     17272     17530     17092     17155     17156     17282     17027     17067 
average row accesses per activate:
dram[0]: 17.549999 17.610064 16.766466 16.766466 17.500000 17.391304 16.091953 17.283951 16.682634 16.473373 16.872726 17.732485 18.223684 18.577181 17.006134 17.656052 
dram[1]: 17.525000 18.421053 17.610064 17.391304 16.666666 18.421053 16.568047 18.181818 16.388235 18.437086 16.771084 18.196079 17.531645 19.771429 17.006134 18.000000 
dram[2]: 15.948864 19.444445 16.279070 18.543047 15.135135 18.918919 15.469613 17.721519 15.307693 18.938776 15.908571 17.732485 16.580839 19.631207 15.400000 18.857143 
dram[3]: 17.283951 19.444445 17.500000 18.543047 16.666666 18.791946 16.766466 18.181818 16.571428 17.732485 16.571428 18.684565 17.858065 19.492958 16.598803 18.986301 
dram[4]: 17.834394 18.918919 17.721519 18.064516 16.766466 17.834394 16.000000 17.177914 16.571428 18.196079 16.473373 17.732485 17.743589 19.222221 17.325001 17.544304 
dram[5]: 17.834394 18.666666 17.610064 19.047619 17.073172 18.791946 16.374269 17.177914 16.872726 19.200001 16.473373 18.559999 17.974026 20.656717 16.902439 18.986301 
dram[6]: 16.374269 19.718309 16.470589 18.666666 16.470589 19.310345 16.374269 18.543047 16.771084 18.684565 15.640450 18.437086 17.408806 21.129770 16.305882 19.250000 
dram[7]: 16.374269 20.289856 16.279070 18.918919 16.000000 18.791946 15.300547 18.791946 15.728813 19.200001 15.728813 18.559999 16.674698 20.352942 16.598803 19.659575 
dram[8]: 17.283951 19.718309 17.073172 20.000000 16.969696 18.791946 15.819209 18.543047 16.000000 18.437086 16.771084 18.559999 17.299999 21.292307 17.111111 20.842106 
dram[9]: 17.391304 19.178082 16.969696 18.421053 17.177914 17.610064 15.300547 18.300653 16.092485 18.077923 16.186047 17.961290 17.192547 19.492958 17.325001 19.659575 
dram[10]: 18.064516 19.718309 17.283951 20.588236 17.391304 18.791946 15.642458 19.178082 16.092485 18.437086 16.186047 19.068493 17.192547 20.352942 17.111111 20.233576 
dram[11]: 16.969696 19.444445 16.568047 19.718309 16.867470 18.543047 15.300547 19.178082 16.186047 18.810810 15.553073 19.200001 17.858065 21.292307 17.217392 19.942446 
dram[12]: 17.610064 18.791946 17.283951 20.289856 16.867470 19.310345 15.819209 18.918919 15.908571 19.068493 16.473373 18.938776 17.630573 19.913670 17.006134 20.233576 
dram[13]: 17.391304 19.718309 16.666666 19.178082 17.073172 19.047619 16.568047 18.543047 16.092485 18.559999 16.376471 17.961290 18.453333 19.913670 18.236841 19.659575 
dram[14]: 17.834394 19.858156 16.279070 19.444445 16.867470 19.310345 16.374269 18.300653 16.571428 19.068493 16.571428 18.196079 18.331125 20.204380 18.000000 20.533333 
dram[15]: 17.834394 19.858156 16.470589 19.444445 16.766466 20.143885 14.814815 18.064516 15.640450 19.068493 15.640450 18.196079 16.282352 20.503704 17.433962 19.799999 
dram[16]: 17.834394 20.437956 17.283951 20.289856 16.568047 19.858156 16.184971 18.543047 16.376471 19.333334 16.186047 19.200001 18.331125 19.913670 17.433962 20.233576 
dram[17]: 17.948717 19.310345 16.867470 19.718309 16.766466 18.064516 15.730337 17.834394 16.571428 18.315790 16.473373 18.437086 17.858065 18.829931 17.656052 19.521128 
dram[18]: 17.948717 19.858156 17.610064 20.895523 16.470589 19.580420 16.091953 18.300653 16.092485 19.068493 16.092485 19.744680 17.630573 20.503704 17.217392 19.799999 
dram[19]: 16.666666 20.437956 17.610064 20.895523 15.300547 18.791946 15.384615 18.543047 16.376471 18.810810 16.280703 19.200001 17.299999 20.204380 16.402367 19.250000 
dram[20]: 17.500000 20.143885 17.391304 20.588236 17.610064 19.178082 16.374269 18.064516 16.670658 19.068493 16.975609 19.744680 17.743589 19.631207 17.544304 19.521128 
dram[21]: 18.421053 19.718309 17.500000 19.580420 16.279070 18.300653 17.177914 17.610064 16.186047 18.810810 17.185184 18.437086 18.453333 20.204380 16.902439 18.729731 
dram[22]: 17.721519 19.858156 16.666666 21.212122 17.283951 18.791946 15.730337 18.543047 15.908571 17.620253 17.079754 18.684565 17.518988 19.089655 17.544304 18.986301 
dram[23]: 16.568047 18.791946 16.666666 19.444445 17.500000 18.300653 16.091953 17.834394 16.872726 17.620253 17.185184 17.509434 17.974026 18.577181 16.598803 18.000000 
dram[24]: 17.610064 17.834394 17.073172 19.178082 16.666666 17.610064 16.666666 16.766466 15.908571 16.473373 16.376471 17.291925 17.408806 17.858065 16.500000 18.486666 
dram[25]: 18.300653 18.181818 17.721519 18.666666 17.283951 17.610064 16.969696 16.374269 18.196079 16.186047 16.771084 16.872726 18.091503 18.091503 17.433962 17.229815 
dram[26]: 18.791946 17.073172 18.181818 16.666666 17.610064 16.470589 17.177914 16.470589 17.732485 16.771084 17.185184 16.092485 17.630573 16.378698 17.111111 15.411111 
dram[27]: 17.610064 17.177914 17.834394 17.610064 17.834394 17.834394 17.391304 16.091953 18.077923 16.771084 17.079754 16.092485 17.858065 17.743589 17.111111 17.018404 
dram[28]: 18.543047 17.948717 17.610064 17.834394 17.834394 17.948717 16.666666 16.867470 17.509434 15.818182 17.079754 16.473373 17.858065 17.858065 17.769230 16.914635 
dram[29]: 19.047619 18.300653 17.610064 17.391304 18.064516 17.610064 18.064516 16.184971 17.509434 16.473373 18.196079 16.872726 18.829931 18.091503 18.480000 17.229815 
dram[30]: 18.300653 16.766466 18.064516 17.283951 18.300653 16.568047 17.610064 16.568047 17.291925 15.553073 17.961290 16.771084 19.089655 18.091503 18.480000 16.034681 
dram[31]: 18.064516 17.834394 18.791946 17.610064 18.543047 17.721519 17.834394 16.374269 17.079754 16.473373 18.437086 16.872726 18.210526 17.743589 18.000000 17.123457 
average row locality = 1427757/80648 = 17.703564
number of total memory accesses made:
dram[0]:         0         0         0         0         0         0         0         0         0         0         0         0         0         0         0         0 
dram[1]:         0         0         0         0         0         0         0         0         0         0         0         0         0         0         0         0 
dram[2]:         0         0         0         0         0         0         0         0         0         0         0         0         0         0         0         0 
dram[3]:         0         0         0         0         0         0         0         0         0         0         0         0         0         0         0         0 
dram[4]:         0         0         0         0         0         0         0         0         0         0         0         0         0         0         0         0 
dram[5]:         0         0         0         0         0         0         0         0         0         0         0         0         0         0         0         0 
dram[6]:         0         0         0         0         0         0         0         0         0         0         0         0         0         0         0         0 
dram[7]:         0         0         0         0         0         0         0         0         0         0         0         0         0         0         0         0 
dram[8]:         0         0         0         0         0         0         0         0         0         0         0         0         0         0         0         0 
dram[9]:         0         0         0         0         0         0         0         0         0         0         0         0         0         0         0         0 
dram[10]:         0         0         0         0         0         0         0         0         0         0         0         0         0         0         0         0 
dram[11]:         0         0         0         0         0         0         0         0         0         0         0         0         0         0         0         0 
dram[12]:         0         0         0         0         0         0         0         0         0         0         0         0         0         0         0         0 
dram[13]:         0         0         0         0         0         0         0         0         0         0         0         0         0         0         0         0 
dram[14]:         0         0         0         0         0         0         0         0         0         0         0         0         0         0         0         0 
dram[15]:         0         0         0         0         0         0         0         0         0         0         0         0         0         0         0         0 
dram[16]:         0         0         0         0         0         0         0         0         0         0         0         0         0         0         0         0 
dram[17]:         0         0         0         0         0         0         0         0         0         0         0         0         0         0         0         0 
dram[18]:         0         0         0         0         0         0         0         0         0         0         0         0         0         0         0         0 
dram[19]:         0         0         0         0         0         0         0         0         0         0         0         0         0         0         0         0 
dram[20]:         0         0         0         0         0         0         0         0         0         0         0         0         0         0         0         0 
dram[21]:         0         0         0         0         0         0         0         0         0         0         0         0         0         0         0         0 
dram[22]:         0         0         0         0         0         0         0         0         0         0         0         0         0         0         0         0 
dram[23]:         0         0         0         0         0         0         0         0         0         0         0         0         0         0         0         0 
dram[24]:         0         0         0         0         0         0         0         0         0         0         0         0         0         0         0         0 
dram[25]:         0         0         0         0         0         0         0         0         0         0         0         0         0         0         0         0 
dram[26]:         0         0         0         0         0         0         0         0         0         0         0         0         0         0         0         0 
dram[27]:         0         0         0         0         0         0         0         0         0         0         0         0         0         0         0         0 
dram[28]:         0         0         0         0         0         0         0         0         0         0         0         0         0         0         0         0 
dram[29]:         0         0         0         0         0         0         0         0         0         0         0         0         0         0         0         0 
dram[30]:         0         0         0         0         0         0         0         0         0         0         0         0         0         0         0         0 
dram[31]:         0         0         0         0         0         0         0         0         0         0         0         0         0         0         0         0 
total accesses: 0
min_bank_accesses = 0!
min_chip_accesses = 0!
number of total read accesses:
dram[0]:      2315      2304      2304      2304      2304      2304      2304      2304      2304      2304      2304      2304      2304      2304      2304      2304 
dram[1]:      2312      2304      2304      2304      2304      2304      2304      2304      2304      2304      2304      2304      2304      2304      2304      2304 
dram[2]:      2313      2304      2304      2304      2304      2304      2304      2304      2304      2304      2304      2304      2304      2304      2304      2304 
dram[3]:      2304      2304      2304      2304      2304      2304      2304      2304      2304      2304      2304      2304      2304      2304      2304      2304 
dram[4]:      2304      2304      2304      2304      2304      2304      2304      2304      2304      2304      2304      2304      2304      2304      2304      2304 
dram[5]:      2304      2304      2304      2304      2304      2304      2304      2304      2304      2304      2304      2304      2304      2304      2304      2304 
dram[6]:      2304      2304      2304      2304      2304      2304      2304      2304      2304      2304      2304      2304      2304      2304      2304      2304 
dram[7]:      2304      2304      2304      2304      2304      2304      2304      2304      2304      2304      2304      2304      2304      2304      2304      2304 
dram[8]:      2304      2304      2304      2304      2304      2304      2304      2304      2304      2304      2304      2304      2304      2304      2304      2304 
dram[9]:      2304      2304      2304      2304      2304      2304      2304      2304      2304      2304      2304      2304      2304      2304      2304      2304 
dram[10]:      2304      2304      2304      2304      2304      2304      2304      2304      2304      2304      2304      2304      2304      2304      2304      2304 
dram[11]:      2304      2304      2304      2304      2304      2304      2304      2304      2304      2304      2304      2304      2304      2304      2304      2304 
dram[12]:      2304      2304      2304      2304      2304      2304      2304      2304      2304      2304      2304      2304      2304      2304      2304      2304 
dram[13]:      2304      2304      2304      2304      2304      2304      2304      2304      2304      2304      2304      2304      2304      2304      2304      2304 
dram[14]:      2304      2304      2304      2304      2304      2304      2304      2304      2304      2304      2304      2304      2304      2304      2304      2304 
dram[15]:      2304      2304      2304      2304      2304      2304      2304      2304      2304      2304      2304      2304      2304      2304      2304      2304 
dram[16]:      2304      2304      2304      2304      2304      2304      2304      2304      2304      2304      2304      2304      2304      2304      2304      2304 
dram[17]:      2304      2304      2304      2304      2304      2304      2304      2304      2304      2304      2304      2304      2304      2304      2304      2304 
dram[18]:      2304      2304      2304      2304      2304      2304      2304      2304      2304      2304      2304      2304      2304      2304      2304      2304 
dram[19]:      2304      2304      2304      2304      2304      2304      2304      2304      2304      2304      2304      2304      2304      2304      2304      2304 
dram[20]:      2304      2304      2304      2304      2304      2304      2304      2304      2304      2304      2304      2304      2304      2304      2304      2304 
dram[21]:      2304      2304      2304      2304      2304      2304      2304      2304      2304      2304      2304      2304      2304      2304      2304      2304 
dram[22]:      2304      2304      2304      2304      2304      2304      2304      2304      2304      2304      2304      2304      2304      2304      2304      2304 
dram[23]:      2304      2304      2304      2304      2304      2304      2304      2304      2304      2304      2304      2304      2304      2304      2304      2304 
dram[24]:      2304      2304      2304      2304      2304      2304      2304      2304      2304      2304      2304      2304      2304      2304      2304      2304 
dram[25]:      2304      2304      2304      2304      2304      2304      2304      2304      2304      2304      2304      2304      2304      2304      2304      2304 
dram[26]:      2304      2304      2304      2304      2304      2304      2304      2304      2304      2304      2304      2304      2304      2304      2304      2304 
dram[27]:      2304      2304      2304      2304      2304      2304      2304      2304      2304      2304      2304      2304      2304      2304      2304      2304 
dram[28]:      2304      2304      2304      2304      2304      2304      2304      2304      2304      2304      2304      2304      2304      2304      2304      2304 
dram[29]:      2304      2304      2304      2304      2304      2304      2304      2304      2304      2304      2304      2304      2304      2304      2304      2304 
dram[30]:      2304      2304      2304      2304      2304      2304      2304      2304      2304      2304      2304      2304      2304      2304      2304      2304 
dram[31]:      2304      2304      2304      2304      2304      2304      2304      2304      2304      2304      2304      2304      2304      2304      2304      2304 
total dram reads = 1179676
bank skew: 2315/2304 = 1.00
chip skew: 36875/36864 = 1.00
number of total write accesses:
dram[0]:       493       496       496       496       496       496       496       496       482       480       480       480       466       464       468       468 
dram[1]:       492       496       496       496       496       496       496       496       482       480       480       480       466       464       468       468 
dram[2]:       494       496       496       496       496       496       496       496       482       480       480       480       465       464       468       468 
dram[3]:       496       496       496       496       496       496       496       496       480       480       480       480       464       464       468       468 
dram[4]:       496       496       496       496       496       496       496       496       480       480       480       480       464       464       468       468 
dram[5]:       496       496       496       496       496       496       496       496       480       480       480       480       464       464       468       468 
dram[6]:       496       496       496       496       496       496       496       496       480       480       480       480       464       464       468       468 
dram[7]:       496       496       496       496       496       496       496       496       480       480       480       480       464       464       468       468 
dram[8]:       496       496       496       496       496       496       496       496       480       480       480       480       464       464       468       468 
dram[9]:       496       496       496       496       496       496       496       496       480       480       480       480       464       464       468       468 
dram[10]:       496       496       496       496       496       496       496       496       480       480       480       480       464       464       468       468 
dram[11]:       496       496       496       496       496       496       496       496       480       480       480       480       464       464       468       468 
dram[12]:       496       496       496       496       496       496       496       496       480       480       480       480       464       464       468       468 
dram[13]:       496       496       496       496       496       496       496       496       480       480       480       480       464       464       468       468 
dram[14]:       496       496       496       496       496       496       496       496       480       480       480       480       464       464       468       468 
dram[15]:       496       496       496       496       496       496       496       496       480       480       480       480       464       464       468       468 
dram[16]:       496       496       496       496       496       496       496       496       480       480       480       480       464       464       468       468 
dram[17]:       496       496       496       496       496       496       496       496       480       480       480       480       464       464       468       468 
dram[18]:       496       496       496       496       496       496       496       496       480       480       480       480       464       464       468       468 
dram[19]:       496       496       496       496       496       496       496       496       480       480       480       480       464       464       468       468 
dram[20]:       496       496       496       496       496       496       496       496       480       480       480       480       464       464       468       468 
dram[21]:       496       496       496       496       496       496       496       496       480       480       480       480       464       464       468       468 
dram[22]:       496       496       496       496       496       496       496       496       480       480       480       480       464       464       468       468 
dram[23]:       496       496       496       496       496       496       496       496       480       480       480       480       464       464       468       468 
dram[24]:       496       496       496       496       496       496       496       496       480       480       480       480       464       464       468       469 
dram[25]:       496       496       496       496       496       496       496       496       480       480       480       480       464       464       468       470 
dram[26]:       496       496       496       496       496       496       496       496       480       480       480       480       464       464       468       470 
dram[27]:       496       496       496       496       496       496       496       496       480       480       480       480       464       464       468       470 
dram[28]:       496       496       496       496       496       496       496       496       480       480       480       480       464       464       468       470 
dram[29]:       496       496       496       496       496       496       496       496       480       480       480       480       464       464       468       470 
dram[30]:       496       496       496       496       496       496       496       496       480       480       480       480       464       464       468       470 
dram[31]:       496       496       496       496       496       496       496       496       480       480       480       480       464       464       468       470 
total dram writes = 248081
bank skew: 496/464 = 1.07
chip skew: 7754/7752 = 1.00
average mf latency per bank:
dram[0]:        473       464       470       471       469       466       466       465       469       468       464       461       464       467       467       467
dram[1]:        469       468       474       473       470       462       464       467       470       466       465       465       470       468       470       471
dram[2]:        462       468       476       472       470       464       468       464       470       465       465       466       468       470       471       472
dram[3]:        464       468       471       474       467       460       470       461       470       467       466       461       468       474       468       467
dram[4]:        468       470       476       470       466       465       473       464       472       468       465       461       468       477       470       466
dram[5]:        470       466       471       476       465       465       468       465       474       465       464       462       468       479       467       465
dram[6]:        468       468       469       476       466       465       466       466       474       470       466       468       471       472       469       466
dram[7]:        465       472       473       475       465       466       465       462       472       467       463       465       470       471       470       464
dram[8]:        465       467       474       474       465       461       464       466       474       467       466       467       471       471       468       464
dram[9]:        469       468       475       472       464       464       466       465       473       463       467       469       471       474       473       466
dram[10]:        467       466       473       473       463       464       469       464       471       468       471       466       470       472       473       465
dram[11]:        468       466       471       475       459       464       465       464       472       466       468       464       472       472       470       467
dram[12]:        469       469       473       475       464       465       467       464       469       467       468       462       471       473       468       467
dram[13]:        468       467       471       472       463       468       469       462       471       467       469       463       472       470       468       463
dram[14]:        464       471       474       473       464       467       467       464       472       468       468       464       473       467       466       466
dram[15]:        465       467       468       472       466       464       462       462       469       468       463       465       472       464       466       463
dram[16]:        466       468       473       473       463       464       463       466       468       468       464       461       473       467       465       461
dram[17]:        466       470       473       472       462       464       461       464       470       466       465       462       470       473       466       462
dram[18]:        464       465       468       474       462       467       462       467       473       471       469       464       472       468       466       464
dram[19]:        459       467       470       474       461       467       459       467       471       469       467       459       470       471       464       463
dram[20]:        463       466       472       473       463       466       461       471       468       468       466       463       473       468       469       464
dram[21]:        463       469       473       471       467       465       461       467       470       466       467       462       471       468       468       464
dram[22]:        466       466       471       469       465       466       464       468       472       467       465       459       472       468       465       466
dram[23]:        466       466       470       468       466       468       468       468       472       468       464       460       470       467       466       466
dram[24]:        465       472       471       474       464       469       467       463       470       466       464       460       470       470       467       466
dram[25]:        466       468       471       474       465       472       465       465       467       466       467       460       469       470       466       464
dram[26]:        467       469       470       472       464       468       463       465       469       466       464       464       467       466       467       465
dram[27]:        469       475       470       473       463       468       467       468       467       467       464       464       468       467       468       470
dram[28]:        464       476       471       472       462       469       469       468       468       468       462       466       467       466       465       467
dram[29]:        463       471       475       477       465       469       468       473       466       466       462       469       468       470       466       469
dram[30]:        466       472       469       476       468       470       468       470       465       464       461       468       464       469       468       463
dram[31]:        465       469       474       475       463       462       469       470       468       467       461       466       465       468       468       462
maximum mf latency per bank:
[...]
WTRc_limit = 46415 
RTWc_limit = 141479 
CCDLc_limit = 121494 
rwq = 0 
CCDLc_limit_alone = 91229 
WTRc_limit_alone = 38309 
RTWc_limit_alone = 119320 

Commands details: 
total_CMD = 573084 
n_nop = 355265 
Read = 108544 
Write = 0 
L2_Alloc = 0 
L2_WB = 94672 
n_act = 13135 
n_pre = 13119 
n_ref = 0 
n_req = 132212 
total_req = 203216 

Dual Bus Interface Util: 
issued_total_row = 26254 
issued_total_col = 203216 
Row_Bus_Util =  0.045812 
CoL_Bus_Util = 0.354601 
Either_Row_CoL_Bus_Util = 0.380082 
Issued_on_Two_Bus_Simul_Util = 0.020330 
issued_two_Eff = 0.053489 
queue_avg = 12.856046 


dram_util_bins: 0 0 0 0 0 0 0 0 0 0
dram_eff_bins: 0 0 0 0 0 0 0 0 0 0
mrqq: max=64 avg=12.856
Memory Partition 29: 
Cache L2_bank_058:
MSHR contents

Cache L2_bank_059:
MSHR contents

In Dram Latency Queue (total = 0): 
DRAM[29]: 16 bks, busW=16 BL=2 CL=12, tRRD=3 tCCD=1, tRCD=12 tRAS=28 tRP=12 tRC=40
n_cmd=573084 n_nop=355387 n_act=13113 n_pre=13097 n_ref_event=0 n_req=132212 n_rd=108544 n_rd_L2_A=0 n_write=0 n_wr_bk=94672 bw_util=0.3546
n_activity=436814 dram_eff=0.4652
bk0: 6784a 513526i bk1: 6784a 513994i bk2: 6784a 511487i bk3: 6784a 512206i bk4: 6784a 513423i bk5: 6784a 512766i bk6: 6784a 512737i bk7: 6784a 510597i bk8: 6784a 511756i bk9: 6784a 511973i bk10: 6784a 512876i bk11: 6784a 512125i bk12: 6784a 513874i bk13: 6784a 512098i bk14: 6784a 514174i bk15: 6784a 513356i 

------------------------------------------------------------------------

Row_Buffer_Locality = 0.900818
Row_Buffer_Locality_read = 0.940245
Row_Buffer_Locality_write = 0.720002
Bank_Level_Parallism = 2.689157
Bank_Level_Parallism_Col = 2.239324
Bank_Level_Parallism_Ready = 1.262100
write_to_read_ratio_blp_rw_average = 0.544500
GrpLevelPara = 1.866141 

BW Util details:
bwutil = 0.354601 
total_CMD = 573084 
util_bw = 203216 
Wasted_Col = 178823 
Wasted_Row = 26486 
Idle = 164559 

BW Util Bottlenecks: 
RCDc_limit = 46101 
RCDWRc_limit = 31172 
WTRc_limit = 46457 
RTWc_limit = 140912 
CCDLc_limit = 120381 
rwq = 0 
CCDLc_limit_alone = 90159 
WTRc_limit_alone = 38356 
RTWc_limit_alone = 118791 

Commands details: 
total_CMD = 573084 
n_nop = 355387 
Read = 108544 
Write = 0 
L2_Alloc = 0 
L2_WB = 94672 
n_act = 13113 
n_pre = 13097 
n_ref = 0 
n_req = 132212 
total_req = 203216 

Dual Bus Interface Util: 
issued_total_row = 26210 
issued_total_col = 203216 
Row_Bus_Util =  0.045735 
CoL_Bus_Util = 0.354601 
Either_Row_CoL_Bus_Util = 0.379869 
Issued_on_Two_Bus_Simul_Util = 0.020466 
issued_two_Eff = 0.053878 
queue_avg = 12.844292 


dram_util_bins: 0 0 0 0 0 0 0 0 0 0
dram_eff_bins: 0 0 0 0 0 0 0 0 0 0
mrqq: max=64 avg=12.8443
Memory Partition 30: 
Cache L2_bank_060:
MSHR contents

Cache L2_bank_061:
MSHR contents

In Dram Latency Queue (total = 0): 
DRAM[30]: 16 bks, busW=16 BL=2 CL=12, tRRD=3 tCCD=1, tRCD=12 tRAS=28 tRP=12 tRC=40
n_cmd=573084 n_nop=355354 n_act=12974 n_pre=12958 n_ref_event=0 n_req=132214 n_rd=108544 n_rd_L2_A=0 n_write=0 n_wr_bk=94680 bw_util=0.3546
n_activity=436645 dram_eff=0.4654
bk0: 6784a 513098i bk1: 6784a 514045i bk2: 6784a 512714i bk3: 6784a 513346i bk4: 6784a 513751i bk5: 6784a 513332i bk6: 6784a 511680i bk7: 6784a 512445i bk8: 6784a 512200i bk9: 6784a 511635i bk10: 6784a 515413i bk11: 6784a 513880i bk12: 6784a 513984i bk13: 6784a 512697i bk14: 6784a 513109i bk15: 6784a 513781i 

------------------------------------------------------------------------

Row_Buffer_Locality = 0.901871
Row_Buffer_Locality_read = 0.940789
Row_Buffer_Locality_write = 0.723405
Bank_Level_Parallism = 2.669742
Bank_Level_Parallism_Col = 2.228492
Bank_Level_Parallism_Ready = 1.255491
write_to_read_ratio_blp_rw_average = 0.541328
GrpLevelPara = 1.860209 

BW Util details:
bwutil = 0.354615 
total_CMD = 573084 
util_bw = 203224 
Wasted_Col = 178481 
Wasted_Row = 26742 
Idle = 164637 

BW Util Bottlenecks: 
RCDc_limit = 45481 
RCDWRc_limit = 30966 
WTRc_limit = 46211 
RTWc_limit = 138868 
CCDLc_limit = 121905 
rwq = 0 
CCDLc_limit_alone = 91640 
WTRc_limit_alone = 38410 
RTWc_limit_alone = 116404 

Commands details: 
total_CMD = 573084 
n_nop = 355354 
Read = 108544 
Write = 0 
L2_Alloc = 0 
L2_WB = 94680 
n_act = 12974 
n_pre = 12958 
n_ref = 0 
n_req = 132214 
total_req = 203224 

Dual Bus Interface Util: 
issued_total_row = 25932 
issued_total_col = 203224 
Row_Bus_Util =  0.045250 
CoL_Bus_Util = 0.354615 
Either_Row_CoL_Bus_Util = 0.379927 
Issued_on_Two_Bus_Simul_Util = 0.019938 
issued_two_Eff = 0.052478 
queue_avg = 12.895975 


dram_util_bins: 0 0 0 0 0 0 0 0 0 0
dram_eff_bins: 0 0 0 0 0 0 0 0 0 0
mrqq: max=64 avg=12.896
Memory Partition 31: 
Cache L2_bank_062:
MSHR contents

Cache L2_bank_063:
MSHR contents

In Dram Latency Queue (total = 0): 
DRAM[31]: 16 bks, busW=16 BL=2 CL=12, tRRD=3 tCCD=1, tRCD=12 tRAS=28 tRP=12 tRC=40
n_cmd=573084 n_nop=355355 n_act=12946 n_pre=12930 n_ref_event=0 n_req=132212 n_rd=108544 n_rd_L2_A=0 n_write=0 n_wr_bk=94672 bw_util=0.3546
n_activity=437112 dram_eff=0.4649
bk0: 6784a 511240i bk1: 6784a 512723i bk2: 6784a 512043i bk3: 6784a 514014i bk4: 6784a 515077i bk5: 6784a 513130i bk6: 6784a 512038i bk7: 6784a 512206i bk8: 6784a 511062i bk9: 6784a 512496i bk10: 6784a 513327i bk11: 6784a 514162i bk12: 6784a 513041i bk13: 6784a 513266i bk14: 6784a 513863i bk15: 6784a 513759i 

------------------------------------------------------------------------

Row_Buffer_Locality = 0.902081
Row_Buffer_Locality_read = 0.940356
Row_Buffer_Locality_write = 0.726551
Bank_Level_Parallism = 2.676660
Bank_Level_Parallism_Col = 2.235780
Bank_Level_Parallism_Ready = 1.254473
write_to_read_ratio_blp_rw_average = 0.539058
GrpLevelPara = 1.866368 

BW Util details:
bwutil = 0.354601 
total_CMD = 573084 
util_bw = 203216 
Wasted_Col = 178632 
Wasted_Row = 26911 
Idle = 164325 

BW Util Bottlenecks: 
RCDc_limit = 46136 
RCDWRc_limit = 30995 
WTRc_limit = 47766 
RTWc_limit = 139468 
CCDLc_limit = 121773 
rwq = 0 
CCDLc_limit_alone = 91684 
WTRc_limit_alone = 39802 
RTWc_limit_alone = 117343 

Commands details: 
total_CMD = 573084 
n_nop = 355355 
Read = 108544 
Write = 0 
L2_Alloc = 0 
L2_WB = 94672 
n_act = 12946 
n_pre = 12930 
n_ref = 0 
n_req = 132212 
total_req = 203216 

Dual Bus Interface Util: 
issued_total_row = 25876 
issued_total_col = 203216 
Row_Bus_Util =  0.045152 
CoL_Bus_Util = 0.354601 
Either_Row_CoL_Bus_Util = 0.379925 
Issued_on_Two_Bus_Simul_Util = 0.019828 
issued_two_Eff = 0.052189 
queue_avg = 13.107609 


dram_util_bins: 0 0 0 0 0 0 0 0 0 0
dram_eff_bins: 0 0 0 0 0 0 0 0 0 0
mrqq: max=64 avg=13.1076

========= L2 cache stats =========
L2_cache_bank[0]: Access = 124088, Miss = 58380, Miss_rate = 0.470, Pending_hits = 2170, Reservation_fails = 458
L2_cache_bank[1]: Access = 123677, Miss = 58368, Miss_rate = 0.472, Pending_hits = 2140, Reservation_fails = 0
L2_cache_bank[2]: Access = 124079, Miss = 58376, Miss_rate = 0.470, Pending_hits = 2174, Reservation_fails = 317
L2_cache_bank[3]: Access = 123744, Miss = 58368, Miss_rate = 0.472, Pending_hits = 2121, Reservation_fails = 0
L2_cache_bank[4]: Access = 123916, Miss = 58380, Miss_rate = 0.471, Pending_hits = 2145, Reservation_fails = 258
L2_cache_bank[5]: Access = 123729, Miss = 58368, Miss_rate = 0.472, Pending_hits = 2124, Reservation_fails = 0
L2_cache_bank[6]: Access = 124104, Miss = 58379, Miss_rate = 0.470, Pending_hits = 2161, Reservation_fails = 468
L2_cache_bank[7]: Access = 123762, Miss = 58368, Miss_rate = 0.472, Pending_hits = 2186, Reservation_fails = 0
L2_cache_bank[8]: Access = 124019, Miss = 58379, Miss_rate = 0.471, Pending_hits = 2150, Reservation_fails = 154
L2_cache_bank[9]: Access = 123727, Miss = 58368, Miss_rate = 0.472, Pending_hits = 2142, Reservation_fails = 0
L2_cache_bank[10]: Access = 123659, Miss = 58368, Miss_rate = 0.472, Pending_hits = 2133, Reservation_fails = 0
L2_cache_bank[11]: Access = 123649, Miss = 58368, Miss_rate = 0.472, Pending_hits = 2124, Reservation_fails = 0
L2_cache_bank[12]: Access = 123801, Miss = 58368, Miss_rate = 0.471, Pending_hits = 2140, Reservation_fails = 0
L2_cache_bank[13]: Access = 123782, Miss = 58368, Miss_rate = 0.472, Pending_hits = 2136, Reservation_fails = 0
L2_cache_bank[14]: Access = 123716, Miss = 58368, Miss_rate = 0.472, Pending_hits = 2112, Reservation_fails = 0
L2_cache_bank[15]: Access = 123625, Miss = 58368, Miss_rate = 0.472, Pending_hits = 2141, Reservation_fails = 0
L2_cache_bank[16]: Access = 123744, Miss = 58368, Miss_rate = 0.472, Pending_hits = 2124, Reservation_fails = 0
L2_cache_bank[17]: Access = 123674, Miss = 58368, Miss_rate = 0.472, Pending_hits = 2138, Reservation_fails = 0
L2_cache_bank[18]: Access = 123703, Miss = 58368, Miss_rate = 0.472, Pending_hits = 2133, Reservation_fails = 0
L2_cache_bank[19]: Access = 123730, Miss = 58368, Miss_rate = 0.472, Pending_hits = 2099, Reservation_fails = 0
L2_cache_bank[20]: Access = 123726, Miss = 58368, Miss_rate = 0.472, Pending_hits = 2155, Reservation_fails = 0
L2_cache_bank[21]: Access = 123688, Miss = 58368, Miss_rate = 0.472, Pending_hits = 2116, Reservation_fails = 0
L2_cache_bank[22]: Access = 123668, Miss = 58368, Miss_rate = 0.472, Pending_hits = 2167, Reservation_fails = 0
L2_cache_bank[23]: Access = 123754, Miss = 58368, Miss_rate = 0.472, Pending_hits = 2114, Reservation_fails = 0
L2_cache_bank[24]: Access = 123748, Miss = 58368, Miss_rate = 0.472, Pending_hits = 2183, Reservation_fails = 0
L2_cache_bank[25]: Access = 123666, Miss = 58368, Miss_rate = 0.472, Pending_hits = 2149, Reservation_fails = 0
L2_cache_bank[26]: Access = 123700, Miss = 58368, Miss_rate = 0.472, Pending_hits = 2156, Reservation_fails = 0
L2_cache_bank[27]: Access = 123745, Miss = 58368, Miss_rate = 0.472, Pending_hits = 2121, Reservation_fails = 0
L2_cache_bank[28]: Access = 123762, Miss = 58368, Miss_rate = 0.472, Pending_hits = 2151, Reservation_fails = 0
L2_cache_bank[29]: Access = 123634, Miss = 58368, Miss_rate = 0.472, Pending_hits = 2137, Reservation_fails = 0
L2_cache_bank[30]: Access = 123671, Miss = 58368, Miss_rate = 0.472, Pending_hits = 2184, Reservation_fails = 0
L2_cache_bank[31]: Access = 123782, Miss = 58368, Miss_rate = 0.472, Pending_hits = 2143, Reservation_fails = 0
L2_cache_bank[32]: Access = 123732, Miss = 58368, Miss_rate = 0.472, Pending_hits = 2152, Reservation_fails = 0
L2_cache_bank[33]: Access = 123669, Miss = 58368, Miss_rate = 0.472, Pending_hits = 2166, Reservation_fails = 0
L2_cache_bank[34]: Access = 123763, Miss = 58368, Miss_rate = 0.472, Pending_hits = 2156, Reservation_fails = 0
L2_cache_bank[35]: Access = 123722, Miss = 58368, Miss_rate = 0.472, Pending_hits = 2141, Reservation_fails = 0
L2_cache_bank[36]: Access = 123772, Miss = 58368, Miss_rate = 0.472, Pending_hits = 2183, Reservation_fails = 0
L2_cache_bank[37]: Access = 123652, Miss = 58368, Miss_rate = 0.472, Pending_hits = 2121, Reservation_fails = 0
L2_cache_bank[38]: Access = 123691, Miss = 58368, Miss_rate = 0.472, Pending_hits = 2166, Reservation_fails = 0
L2_cache_bank[39]: Access = 123714, Miss = 58368, Miss_rate = 0.472, Pending_hits = 2114, Reservation_fails = 0
L2_cache_bank[40]: Access = 123682, Miss = 58368, Miss_rate = 0.472, Pending_hits = 2150, Reservation_fails = 0
L2_cache_bank[41]: Access = 123742, Miss = 58368, Miss_rate = 0.472, Pending_hits = 2145, Reservation_fails = 0
L2_cache_bank[42]: Access = 123696, Miss = 58368, Miss_rate = 0.472, Pending_hits = 2153, Reservation_fails = 0
L2_cache_bank[43]: Access = 123661, Miss = 58368, Miss_rate = 0.472, Pending_hits = 2113, Reservation_fails = 0
L2_cache_bank[44]: Access = 123664, Miss = 58368, Miss_rate = 0.472, Pending_hits = 2171, Reservation_fails = 0
L2_cache_bank[45]: Access = 123738, Miss = 58368, Miss_rate = 0.472, Pending_hits = 2098, Reservation_fails = 0
L2_cache_bank[46]: Access = 123858, Miss = 58368, Miss_rate = 0.471, Pending_hits = 2190, Reservation_fails = 0
L2_cache_bank[47]: Access = 123669, Miss = 58368, Miss_rate = 0.472, Pending_hits = 2078, Reservation_fails = 0
L2_cache_bank[48]: Access = 123566, Miss = 58368, Miss_rate = 0.472, Pending_hits = 2145, Reservation_fails = 0
L2_cache_bank[49]: Access = 123725, Miss = 58368, Miss_rate = 0.472, Pending_hits = 2111, Reservation_fails = 0
L2_cache_bank[50]: Access = 123727, Miss = 58368, Miss_rate = 0.472, Pending_hits = 2158, Reservation_fails = 0
L2_cache_bank[51]: Access = 123728, Miss = 58368, Miss_rate = 0.472, Pending_hits = 2104, Reservation_fails = 0
L2_cache_bank[52]: Access = 123749, Miss = 58368, Miss_rate = 0.472, Pending_hits = 2119, Reservation_fails = 0
L2_cache_bank[53]: Access = 123670, Miss = 58368, Miss_rate = 0.472, Pending_hits = 2095, Reservation_fails = 0
L2_cache_bank[54]: Access = 123698, Miss = 58368, Miss_rate = 0.472, Pending_hits = 2174, Reservation_fails = 0
L2_cache_bank[55]: Access = 123859, Miss = 58368, Miss_rate = 0.471, Pending_hits = 2106, Reservation_fails = 0
L2_cache_bank[56]: Access = 123733, Miss = 58368, Miss_rate = 0.472, Pending_hits = 2135, Reservation_fails = 0
L2_cache_bank[57]: Access = 123660, Miss = 58368, Miss_rate = 0.472, Pending_hits = 2150, Reservation_fails = 0
L2_cache_bank[58]: Access = 123709, Miss = 58368, Miss_rate = 0.472, Pending_hits = 2123, Reservation_fails = 0
L2_cache_bank[59]: Access = 123707, Miss = 58368, Miss_rate = 0.472, Pending_hits = 2129, Reservation_fails = 0
L2_cache_bank[60]: Access = 123784, Miss = 58368, Miss_rate = 0.472, Pending_hits = 2140, Reservation_fails = 0
L2_cache_bank[61]: Access = 123721, Miss = 58368, Miss_rate = 0.472, Pending_hits = 2142, Reservation_fails = 0
L2_cache_bank[62]: Access = 123762, Miss = 58368, Miss_rate = 0.472, Pending_hits = 2138, Reservation_fails = 0
L2_cache_bank[63]: Access = 123709, Miss = 58368, Miss_rate = 0.472, Pending_hits = 2116, Reservation_fails = 0
L2_total_cache_accesses = 7919404
L2_total_cache_misses = 3735606
L2_total_cache_miss_rate = 0.4717
L2_total_cache_pending_hits = 136951
L2_total_cache_reservation_fails = 1655
L2_total_cache_breakdown:
	L2_cache_stats_breakdown[GLOBAL_ACC_R][HIT] = 113505
	L2_cache_stats_breakdown[GLOBAL_ACC_R][HIT_RESERVED] = 136825
	L2_cache_stats_breakdown[GLOBAL_ACC_R][MISS] = 868358
	L2_cache_stats_breakdown[GLOBAL_ACC_R][RESERVATION_FAIL] = 151
	L2_cache_stats_breakdown[GLOBAL_ACC_R][SECTOR_MISS] = 2605062
	L2_cache_stats_breakdown[LOCAL_ACC_R][HIT] = 0
	L2_cache_stats_breakdown[LOCAL_ACC_R][HIT_RESERVED] = 0
	L2_cache_stats_breakdown[LOCAL_ACC_R][MISS] = 0
	L2_cache_stats_breakdown[LOCAL_ACC_R][RESERVATION_FAIL] = 0
	L2_cache_stats_breakdown[LOCAL_ACC_R][SECTOR_MISS] = 0
	L2_cache_stats_breakdown[CONST_ACC_R][HIT] = 56
	L2_cache_stats_breakdown[CONST_ACC_R][HIT_RESERVED] = 6
	L2_cache_stats_breakdown[CONST_ACC_R][MISS] = 1
	L2_cache_stats_breakdown[CONST_ACC_R][RESERVATION_FAIL] = 162
	L2_cache_stats_breakdown[CONST_ACC_R][SECTOR_MISS] = 1
	L2_cache_stats_breakdown[TEXTURE_ACC_R][HIT] = 0
	L2_cache_stats_breakdown[TEXTURE_ACC_R][HIT_RESERVED] = 0
	L2_cache_stats_breakdown[TEXTURE_ACC_R][MISS] = 0
	L2_cache_stats_breakdown[TEXTURE_ACC_R][RESERVATION_FAIL] = 0
	L2_cache_stats_breakdown[TEXTURE_ACC_R][SECTOR_MISS] = 0
	L2_cache_stats_breakdown[GLOBAL_ACC_W][HIT] = 3932166
	L2_cache_stats_breakdown[GLOBAL_ACC_W][HIT_RESERVED] = 0
	L2_cache_stats_breakdown[GLOBAL_ACC_W][MISS] = 16384
	L2_cache_stats_breakdown[GLOBAL_ACC_W][RESERVATION_FAIL] = 0
	L2_cache_stats_breakdown[GLOBAL_ACC_W][SECTOR_MISS] = 245760
	L2_cache_stats_breakdown[LOCAL_ACC_W][HIT] = 0
	L2_cache_stats_breakdown[LOCAL_ACC_W][HIT_RESERVED] = 0
	L2_cache_stats_breakdown[LOCAL_ACC_W][MISS] = 0
	L2_cache_stats_breakdown[LOCAL_ACC_W][RESERVATION_FAIL] = 0
	L2_cache_stats_breakdown[LOCAL_ACC_W][SECTOR_MISS] = 0
	L2_cache_stats_breakdown[L1_WRBK_ACC][HIT] = 0
	L2_cache_stats_breakdown[L1_WRBK_ACC][HIT_RESERVED] = 0
	L2_cache_stats_breakdown[L1_WRBK_ACC][MISS] = 0
	L2_cache_stats_breakdown[L1_WRBK_ACC][RESERVATION_FAIL] = 0
	L2_cache_stats_breakdown[L1_WRBK_ACC][SECTOR_MISS] = 0
	L2_cache_stats_breakdown[L2_WRBK_ACC][HIT] = 0
	L2_cache_stats_breakdown[L2_WRBK_ACC][HIT_RESERVED] = 0
	L2_cache_stats_breakdown[L2_WRBK_ACC][MISS] = 0
	L2_cache_stats_breakdown[L2_WRBK_ACC][RESERVATION_FAIL] = 0
	L2_cache_stats_breakdown[L2_WRBK_ACC][SECTOR_MISS] = 0
	L2_cache_stats_breakdown[INST_ACC_R][HIT] = 1120
	L2_cache_stats_breakdown[INST_ACC_R][HIT_RESERVED] = 120
	L2_cache_stats_breakdown[INST_ACC_R][MISS] = 10
	L2_cache_stats_breakdown[INST_ACC_R][RESERVATION_FAIL] = 1342
	L2_cache_stats_breakdown[INST_ACC_R][SECTOR_MISS] = 30
	L2_cache_stats_breakdown[L1_WR_ALLOC_R][HIT] = 0
	L2_cache_stats_breakdown[L1_WR_ALLOC_R][HIT_RESERVED] = 0
	L2_cache_stats_breakdown[L1_WR_ALLOC_R][MISS] = 0
	L2_cache_stats_breakdown[L1_WR_ALLOC_R][RESERVATION_FAIL] = 0
	L2_cache_stats_breakdown[L1_WR_ALLOC_R][SECTOR_MISS] = 0
	L2_cache_stats_breakdown[L2_WR_ALLOC_R][HIT] = 0
	L2_cache_stats_breakdown[L2_WR_ALLOC_R][HIT_RESERVED] = 0
	L2_cache_stats_breakdown[L2_WR_ALLOC_R][MISS] = 0
	L2_cache_stats_breakdown[L2_WR_ALLOC_R][RESERVATION_FAIL] = 0
	L2_cache_stats_breakdown[L2_WR_ALLOC_R][SECTOR_MISS] = 0
	L2_cache_stats_breakdown[GLOBAL_ACC_R][TOTAL_ACCESS] = 3723750
	L2_cache_stats_breakdown[CONST_ACC_R][TOTAL_ACCESS] = 64
	L2_cache_stats_breakdown[GLOBAL_ACC_W][TOTAL_ACCESS] = 4194310
	L2_cache_stats_breakdown[INST_ACC_R][TOTAL_ACCESS] = 1280
L2_total_cache_reservation_fail_breakdown:
	L2_cache_stats_fail_breakdown[GLOBAL_ACC_R][MSHR_MERGE_ENRTY_FAIL] = 151
	L2_cache_stats_fail_breakdown[CONST_ACC_R][MSHR_MERGE_ENRTY_FAIL] = 162
	L2_cache_stats_fail_breakdown[INST_ACC_R][MSHR_MERGE_ENRTY_FAIL] = 1342
L2_cache_data_port_util = 0.065
L2_cache_fill_port_util = 0.055

icnt_total_pkts_mem_to_simt=7919404
icnt_total_pkts_simt_to_mem=7918412
LD_mem_lat_dist  0 0 0 0 0 0 0 0 0 0 0 0 0 0 0 0 0 0 0 0 0 0 0 0 0 0 0
ST_mem_lat_dist  0 0 0 0 0 0 0 0 0 0 0 0 0 0 0 0 0 0 0 0 0 0 0 0 0 0 0
----------------------------Interconnect-DETAILS--------------------------------
Class 0:
Packet latency average = 116.646
	minimum = 5
	maximum = 1095
Network latency average = 101.398
	minimum = 5
	maximum = 1095
Slowest packet = 5688518
Flit latency average = 101.398
	minimum = 5
	maximum = 1095
Slowest flit = 5688518
Fragmentation average = 0
	minimum = 0
	maximum = 0
Injected packet rate average = 0.30037
	minimum = 0.187361 (at node 64)
	maximum = 0.756225 (at node 1)
Accepted packet rate average = 0.30037
	minimum = 0.187361 (at node 64)
	maximum = 0.756281 (at node 1)
Injected flit rate average = 0.30037
	minimum = 0.187361 (at node 64)
	maximum = 0.756225 (at node 1)
Accepted flit rate average= 0.30037
	minimum = 0.187361 (at node 64)
	maximum = 0.756281 (at node 1)
Injected packet length average = 1
Accepted packet length average = 1
Total in-flight flits = 0 (0 measured)
====== Overall Traffic Statistics ======
====== Traffic class 0 ======
Packet latency average = 67.1092 (2 samples)
	minimum = 5 (2 samples)
	maximum = 740 (2 samples)
Network latency average = 55.7383 (2 samples)
	minimum = 5 (2 samples)
	maximum = 686.5 (2 samples)
Flit latency average = 55.7383 (2 samples)
	minimum = 5 (2 samples)
	maximum = 686.5 (2 samples)
Fragmentation average = 0 (2 samples)
	minimum = 0 (2 samples)
	maximum = 0 (2 samples)
Injected packet rate average = 0.213462 (2 samples)
	minimum = 0.133202 (2 samples)
	maximum = 0.536441 (2 samples)
Accepted packet rate average = 0.213462 (2 samples)
	minimum = 0.133202 (2 samples)
	maximum = 0.536503 (2 samples)
Injected flit rate average = 0.213462 (2 samples)
	minimum = 0.133202 (2 samples)
	maximum = 0.536441 (2 samples)
Accepted flit rate average = 0.213462 (2 samples)
	minimum = 0.133202 (2 samples)
	maximum = 0.536503 (2 samples)
Injected packet size average = 1 (2 samples)
Accepted packet size average = 1 (2 samples)
Hops average = 1 (2 samples)
----------------------------END-of-Interconnect-DETAILS-------------------------


gpgpu_simulation_time = 0 days, 2 hrs, 15 min, 29 sec (8129 sec)
gpgpu_simulation_rate = 158982 (inst/sec)
gpgpu_simulation_rate = 120 (cycle/sec)
Training done
GPGPU-Sim: *** exit detected ***
